data/pglib_opf_case2000_goc_storage.m
%%%%%%%%%%%%%%%%%%%%%%%%%%%%%%%%%%%%%%%%%%%%%%%%%%%%%%%%%%%%%%%%%%%%%%%%%%%
%%%%                                                                  %%%%%
%%%%    IEEE PES Power Grid Library - Optimal Power Flow - v23.07     %%%%%
%%%%          (https://github.com/power-grid-lib/pglib-opf)           %%%%%
%%%%               Benchmark Group - Typical Operations               %%%%%
%%%%                         23 - July - 2023                         %%%%%
%%%%                                                                  %%%%%
%%%%%%%%%%%%%%%%%%%%%%%%%%%%%%%%%%%%%%%%%%%%%%%%%%%%%%%%%%%%%%%%%%%%%%%%%%%
%
%   This is a synthetic 2,000 bus case, developed for use in ARPA-e's Grid
%   Optimization Competition, Challenge 1.
%
%   https://gocompetition.energy.gov/challenges/22/datasets
%
%   When publishing results based on this data, please cite:
%
%   [1] A.B. Birchfield, T. Xu, K.M. Gegner, K.S. Shetye, T.J. Overbye,
%       "Grid Structural Characteristics as Validation Criteria for
%       Synthetic Networks," IEEE Transactions on Power Systems, 2017.
%
%   February, 2020
%
%   Copyright (c) 2020 by A.B. Birchfield, H. Li, J. Wert, J. Yeo, T. Xu,
%   and T.J. Overbye
%   Licensed under the Creative Commons Attribution 4.0 International license,
%   http://creativecommons.org/licenses/by/4.0/
%
% Modified to have additional storage capacity and increased gencost
function mpc = pglib_opf_case2000_goc
mpc.version = '2';
mpc.baseMVA = 100.0;

%% bus data
%	bus_i	type	Pd	Qd	Gs	Bs	area	Vm	Va	baseKV	zone	Vmax	Vmin
mpc.bus = [
	1	 1	 0.0	 0.0	 0.0	 0.0	 1	    1.00000	    0.00000	 138.0	 1	    1.10000	    0.90000;
	2	 1	 0.0	 0.0	 0.0	 0.0	 1	    1.00000	    0.00000	 69.0	 1	    1.10000	    0.90000;
	3	 1	 63.032599	 30.499177	 0.0	 0.0	 1	    1.00000	    0.00000	 138.0	 1	    1.10000	    0.90000;
	4	 1	 39.872692	 2.686688	 0.0	 0.0	 1	    1.00000	    0.00000	 69.0	 1	    1.10000	    0.90000;
	5	 1	 59.86117	 29.465619	 0.0	 0.0	 1	    1.00000	    0.00000	 69.0	 1	    1.10000	    0.90000;
	6	 1	 52.61757	 4.2656153	 0.0	 0.0	 1	    1.00000	    0.00000	 69.0	 1	    1.10000	    0.90000;
	7	 1	 56.669624	 12.18891	 0.0	 0.0	 1	    1.00000	    0.00000	 138.0	 1	    1.10000	    0.90000;
	8	 1	 39.112858	 10.233215	 0.0	 125.081972555	 1	    1.00000	    0.00000	 69.0	 1	    1.10000	    0.90000;
	9	 1	 0.0	 0.0	 0.0	 0.0	 1	    1.00000	    0.00000	 138.0	 1	    1.10000	    0.90000;
	10	 1	 0.0	 0.0	 0.0	 0.0	 1	    1.00000	    0.00000	 69.0	 1	    1.10000	    0.90000;
	11	 1	 88.082752	 28.939717	 0.0	 0.0	 1	    1.00000	    0.00000	 138.0	 1	    1.10000	    0.90000;
	12	 1	 0.0	 0.0	 0.0	 0.0	 1	    1.00000	    0.00000	 138.0	 1	    1.10000	    0.90000;
	13	 1	 82.616913	 17.693369	 0.0	 0.0	 1	    1.00000	    0.00000	 69.0	 1	    1.10000	    0.90000;
	14	 1	 0.0	 0.0	 0.0	 0.0	 1	    1.00000	    0.00000	 138.0	 1	    1.10000	    0.90000;
	15	 1	 124.08794	 60.300901	 0.0	 0.0	 1	    1.00000	    0.00000	 138.0	 1	    1.10000	    0.90000;
	16	 1	 58.164337	 11.289482	 0.0	 0.0	 1	    1.00000	    0.00000	 69.0	 1	    1.10000	    0.90000;
	17	 1	 45.635228	 27.013902	 0.0	 0.0	 1	    1.00000	    0.00000	 69.0	 1	    1.10000	    0.90000;
	18	 1	 0.0	 0.0	 0.0	 0.0	 1	    1.00000	    0.00000	 69.0	 1	    1.10000	    0.90000;
	19	 1	 16.253058	 1.8417025	 0.0	 0.0	 1	    1.00000	    0.00000	 69.0	 1	    1.10000	    0.90000;
	20	 1	 0.0	 0.0	 0.0	 0.0	 1	    1.00000	    0.00000	 138.0	 1	    1.10000	    0.90000;
	21	 1	 108.94234	 13.34786	 0.0	 0.0	 1	    1.00000	    0.00000	 69.0	 1	    1.10000	    0.90000;
	22	 1	 0.0	 0.0	 0.0	 0.0	 1	    1.00000	    0.00000	 138.0	 1	    1.10000	    0.90000;
	23	 1	 47.797985	 7.0533189	 0.0	 0.0	 1	    1.00000	    0.00000	 69.0	 1	    1.10000	    0.90000;
	24	 1	 13.259455	 2.933591	 0.0	 0.0	 1	    1.00000	    0.00000	 69.0	 1	    1.10000	    0.90000;
	25	 1	 16.010345	 1.912179	 0.0	 0.0	 1	    1.00000	    0.00000	 69.0	 1	    1.10000	    0.90000;
	26	 1	 0.0	 0.0	 0.0	 0.0	 1	    1.00000	    0.00000	 138.0	 1	    1.10000	    0.90000;
	27	 1	 60.234406	 15.982269	 0.0	 0.0	 1	    1.00000	    0.00000	 69.0	 1	    1.10000	    0.90000;
	28	 1	 0.0	 0.0	 0.0	 0.0	 1	    1.00000	    0.00000	 138.0	 1	    1.10000	    0.90000;
	29	 1	 79.633262	 31.091927	 0.0	 0.0	 1	    1.00000	    0.00000	 69.0	 1	    1.10000	    0.90000;
	30	 1	 59.447927	 1.3231653	 0.0	 0.0	 1	    1.00000	    0.00000	 138.0	 1	    1.10000	    0.90000;
	31	 1	 0.0	 0.0	 0.0	 0.0	 1	    1.00000	    0.00000	 138.0	 1	    1.10000	    0.90000;
	32	 1	 0.0	 0.0	 0.0	 0.0	 1	    1.00000	    0.00000	 69.0	 1	    1.10000	    0.90000;
	33	 1	 51.149767	 11.818091	 0.0	 0.0	 1	    1.00000	    0.00000	 138.0	 1	    1.10000	    0.90000;
	34	 1	 54.772259	 14.831048	 0.0	 0.0	 1	    1.00000	    0.00000	 138.0	 1	    1.10000	    0.90000;
	35	 1	 61.33575	 11.422704	 0.0	 0.0	 1	    1.00000	    0.00000	 69.0	 1	    1.10000	    0.90000;
	36	 1	 46.058696	 5.184763	 0.0	 0.0	 1	    1.00000	    0.00000	 69.0	 1	    1.10000	    0.90000;
	37	 1	 71.28723	 8.0567184	 0.0	 0.0	 1	    1.00000	    0.00000	 69.0	 1	    1.10000	    0.90000;
	38	 1	 20.498477	 5.1283346	 0.0	 0.0	 1	    1.00000	    0.00000	 69.0	 1	    1.10000	    0.90000;
	39	 1	 0.0	 0.0	 0.0	 0.0	 1	    1.00000	    0.00000	 138.0	 1	    1.10000	    0.90000;
	40	 1	 56.791513	 31.333153	 0.0	 0.0	 1	    1.00000	    0.00000	 69.0	 1	    1.10000	    0.90000;
	41	 1	 33.346278	 11.155067	 0.0	 0.0	 1	    1.00000	    0.00000	 69.0	 1	    1.10000	    0.90000;
	42	 1	 0.0	 0.0	 0.0	 0.0	 1	    1.00000	    0.00000	 138.0	 1	    1.10000	    0.90000;
	43	 1	 0.0	 0.0	 0.0	 0.0	 1	    1.00000	    0.00000	 69.0	 1	    1.10000	    0.90000;
	44	 1	 67.732614	 38.37608	 0.0	 0.0	 1	    1.00000	    0.00000	 138.0	 1	    1.10000	    0.90000;
	45	 1	 20.457976	 3.826255	 0.0	 0.0	 1	    1.00000	    0.00000	 69.0	 1	    1.10000	    0.90000;
	46	 1	 21.41017	 4.0268279	 0.0	 0.0	 1	    1.00000	    0.00000	 69.0	 1	    1.10000	    0.90000;
	47	 1	 0.0	 0.0	 0.0	 0.0	 1	    1.00000	    0.00000	 345.0	 1	    1.10000	    0.90000;
	48	 1	 0.0	 0.0	 0.0	 0.0	 1	    1.00000	    0.00000	 138.0	 1	    1.10000	    0.90000;
	49	 1	 0.0	 0.0	 0.0	 0.0	 1	    1.00000	    0.00000	 69.0	 1	    1.10000	    0.90000;
	50	 1	 42.770987	 18.207567	 0.0	 0.0	 1	    1.00000	    0.00000	 345.0	 1	    1.10000	    0.90000;
	51	 1	 26.867091	 13.887133	 0.0	 0.0	 1	    1.00000	    0.00000	 69.0	 1	    1.10000	    0.90000;
	52	 1	 0.0	 0.0	 0.0	 0.0	 1	    1.00000	    0.00000	 345.0	 1	    1.10000	    0.90000;
	53	 1	 0.0	 0.0	 0.0	 0.0	 1	    1.00000	    0.00000	 138.0	 1	    1.10000	    0.90000;
	54	 1	 65.431926	 21.104749	 0.0	 0.0	 1	    1.00000	    0.00000	 345.0	 1	    1.10000	    0.90000;
	55	 1	 0.0	 0.0	 0.0	 0.0	 1	    1.00000	    0.00000	 138.0	 1	    1.10000	    0.90000;
	56	 1	 0.0	 0.0	 0.0	 0.0	 1	    1.00000	    0.00000	 69.0	 1	    1.10000	    0.90000;
	57	 1	 39.42829	 2.9001465	 0.0	 0.0	 1	    1.00000	    0.00000	 138.0	 1	    1.10000	    0.90000;
	58	 1	 29.12641	 11.744102	 0.0	 0.0	 1	    1.00000	    0.00000	 69.0	 1	    1.10000	    0.90000;
	59	 1	 21.808205	 7.3975388	 0.0	 0.0	 1	    1.00000	    0.00000	 69.0	 1	    1.10000	    0.90000;
	60	 1	 16.084567	 0.5157274	 0.0	 0.0	 1	    1.00000	    0.00000	 69.0	 1	    1.10000	    0.90000;
	61	 1	 8.1954502	 2.4931054	 0.0	 0.0	 1	    1.00000	    0.00000	 69.0	 1	    1.10000	    0.90000;
	62	 1	 7.7017986	 4.9119172	 0.0	 0.0	 1	    1.00000	    0.00000	 69.0	 1	    1.10000	    0.90000;
	63	 1	 0.0	 0.0	 0.0	 0.0	 1	    1.00000	    0.00000	 138.0	 1	    1.10000	    0.90000;
	64	 1	 0.0	 0.0	 0.0	 0.0	 1	    1.00000	    0.00000	 69.0	 1	    1.10000	    0.90000;
	65	 1	 16.845318	 8.7799289	 0.0	 0.0	 1	    1.00000	    0.00000	 138.0	 1	    1.10000	    0.90000;
	66	 1	 7.8439512	 2.9993174	 0.0	 0.0	 1	    1.00000	    0.00000	 69.0	 1	    1.10000	    0.90000;
	67	 1	 0.0	 0.0	 0.0	 0.0	 1	    1.00000	    0.00000	 138.0	 1	    1.10000	    0.90000;
	68	 1	 0.0	 0.0	 0.0	 0.0	 1	    1.00000	    0.00000	 69.0	 1	    1.10000	    0.90000;
	69	 1	 9.5930041	 5.0816634	 0.0	 0.0	 1	    1.00000	    0.00000	 138.0	 1	    1.10000	    0.90000;
	70	 1	 7.3159881	 0.62437414	 0.0	 0.0	 1	    1.00000	    0.00000	 69.0	 1	    1.10000	    0.90000;
	71	 1	 0.0	 0.0	 0.0	 0.0	 1	    1.00000	    0.00000	 138.0	 1	    1.10000	    0.90000;
	72	 1	 12.029727	 4.0129322	 0.0	 0.0	 1	    1.00000	    0.00000	 69.0	 1	    1.10000	    0.90000;
	73	 1	 0.0	 0.0	 0.0	 0.0	 1	    1.00000	    0.00000	 138.0	 1	    1.10000	    0.90000;
	74	 1	 12.857525	 1.0586832	 0.0	 8.49688906785	 1	    1.00000	    0.00000	 69.0	 1	    1.10000	    0.90000;
	75	 1	 14.933717	 4.8782627	 0.0	 0.0	 1	    1.00000	    0.00000	 69.0	 1	    1.10000	    0.90000;
	76	 1	 0.0	 0.0	 0.0	 0.0	 1	    1.00000	    0.00000	 138.0	 1	    1.10000	    0.90000;
	77	 1	 0.0	 0.0	 0.0	 0.0	 1	    1.00000	    0.00000	 69.0	 1	    1.10000	    0.90000;
	78	 1	 26.426587	 4.6764255	 0.0	 0.0	 1	    1.00000	    0.00000	 138.0	 1	    1.10000	    0.90000;
	79	 1	 0.0	 0.0	 0.0	 0.0	 1	    1.00000	    0.00000	 138.0	 1	    1.10000	    0.90000;
	80	 1	 0.0	 0.0	 0.0	 0.0	 1	    1.00000	    0.00000	 69.0	 1	    1.10000	    0.90000;
	81	 1	 8.8550628	 1.6739562	 0.0	 0.0	 1	    1.00000	    0.00000	 138.0	 1	    1.10000	    0.90000;
	82	 1	 7.7923374	 0.51391182	 0.0	 0.0	 1	    1.00000	    0.00000	 69.0	 1	    1.10000	    0.90000;
	83	 1	 0.0	 0.0	 0.0	 0.0	 1	    1.00000	    0.00000	 138.0	 1	    1.10000	    0.90000;
	84	 1	 16.143781	 5.1892803	 0.0	 0.0	 1	    1.00000	    0.00000	 138.0	 1	    1.10000	    0.90000;
	85	 1	 0.0	 0.0	 0.0	 0.0	 1	    1.00000	    0.00000	 138.0	 1	    1.10000	    0.90000;
	86	 1	 0.0	 0.0	 0.0	 0.0	 1	    1.00000	    0.00000	 138.0	 1	    1.10000	    0.90000;
	87	 1	 0.0	 0.0	 0.0	 0.0	 1	    1.00000	    0.00000	 69.0	 1	    1.10000	    0.90000;
	88	 1	 52.386693	 12.736043	 0.0	 0.0	 1	    1.00000	    0.00000	 138.0	 1	    1.10000	    0.90000;
	89	 1	 0.0	 0.0	 0.0	 0.0	 1	    1.00000	    0.00000	 138.0	 1	    1.10000	    0.90000;
	90	 1	 0.0	 0.0	 0.0	 0.0	 1	    1.00000	    0.00000	 69.0	 1	    1.10000	    0.90000;
	91	 1	 63.939019	 10.266533	 0.0	 0.0	 1	    1.00000	    0.00000	 138.0	 1	    1.10000	    0.90000;
	92	 1	 29.053947	 14.045927	 0.0	 0.0	 1	    1.00000	    0.00000	 69.0	 1	    1.10000	    0.90000;
	93	 1	 18.532061	 4.3305549	 0.0	 13.0031149174	 1	    1.00000	    0.00000	 69.0	 1	    1.10000	    0.90000;
	94	 1	 19.487602	 3.2734475	 0.0	 0.0	 1	    1.00000	    0.00000	 69.0	 1	    1.10000	    0.90000;
	95	 1	 60.043064	 15.923783	 0.0	 0.00107396248384	 1	    1.00000	    0.00000	 69.0	 1	    1.10000	    0.90000;
	96	 1	 0.0	 0.0	 0.0	 0.0	 1	    1.00000	    0.00000	 345.0	 1	    1.10000	    0.90000;
	97	 1	 0.0	 0.0	 0.0	 0.0	 1	    1.00000	    0.00000	 138.0	 1	    1.10000	    0.90000;
	98	 1	 0.0	 0.0	 0.0	 0.0	 1	    1.00000	    0.00000	 69.0	 1	    1.10000	    0.90000;
	99	 1	 72.519598	 26.914313	 0.0	 0.0	 1	    1.00000	    0.00000	 138.0	 1	    1.10000	    0.90000;
	100	 1	 0.0	 0.0	 0.0	 0.0	 1	    1.00000	    0.00000	 138.0	 1	    1.10000	    0.90000;
	101	 1	 0.0	 0.0	 0.0	 0.0	 1	    1.00000	    0.00000	 69.0	 1	    1.10000	    0.90000;
	102	 1	 80.213195	 11.697076	 0.0	 0.0	 1	    1.00000	    0.00000	 138.0	 1	    1.10000	    0.90000;
	103	 1	 42.864125	 2.0052198	 0.0	 0.0	 1	    1.00000	    0.00000	 69.0	 1	    1.10000	    0.90000;
	104	 1	 59.503172	 21.216872	 0.0	 0.0	 1	    1.00000	    0.00000	 69.0	 1	    1.10000	    0.90000;
	105	 1	 0.0	 0.0	 0.0	 0.000699764345338	 1	    1.00000	    0.00000	 345.0	 1	    1.10000	    0.90000;
	106	 1	 0.0	 0.0	 0.0	 0.0	 1	    1.00000	    0.00000	 138.0	 1	    1.10000	    0.90000;
	107	 1	 0.0	 0.0	 0.0	 0.0	 1	    1.00000	    0.00000	 69.0	 1	    1.10000	    0.90000;
	108	 1	 78.973787	 26.897779	 0.0	 0.0	 1	    1.00000	    0.00000	 345.0	 1	    1.10000	    0.90000;
	109	 1	 42.500261	 11.215608	 0.0	 0.0	 1	    1.00000	    0.00000	 69.0	 1	    1.10000	    0.90000;
	110	 1	 0.0	 0.0	 0.0	 0.0	 1	    1.00000	    0.00000	 138.0	 1	    1.10000	    0.90000;
	111	 1	 0.0	 0.0	 0.0	 0.0	 1	    1.00000	    0.00000	 69.0	 1	    1.10000	    0.90000;
	112	 1	 70.32463	 16.641277	 0.0	 0.0	 1	    1.00000	    0.00000	 138.0	 1	    1.10000	    0.90000;
	113	 1	 44.282331	 5.1595078	 0.0	 0.0	 1	    1.00000	    0.00000	 69.0	 1	    1.10000	    0.90000;
	114	 1	 6.6539341	 1.858247	 0.0	 -19.5770110823	 1	    1.00000	    0.00000	 69.0	 1	    1.10000	    0.90000;
	115	 1	 38.288963	 16.397994	 0.0	 0.0	 1	    1.00000	    0.00000	 69.0	 1	    1.10000	    0.90000;
	116	 1	 14.043978	 3.0853286	 0.0	 0.0	 1	    1.00000	    0.00000	 69.0	 1	    1.10000	    0.90000;
	117	 1	 33.648509	 1.2250378	 0.0	 0.0	 1	    1.00000	    0.00000	 69.0	 1	    1.10000	    0.90000;
	118	 1	 14.131552	 3.2964995	 0.0	 0.0	 1	    1.00000	    0.00000	 69.0	 1	    1.10000	    0.90000;
	119	 1	 42.68915	 11.775552	 0.0	 0.0	 1	    1.00000	    0.00000	 69.0	 1	    1.10000	    0.90000;
	120	 1	 63.129219	 43.045801	 0.0	 0.0	 1	    1.00000	    0.00000	 69.0	 1	    1.10000	    0.90000;
	121	 1	 0.0	 0.0	 0.0	 0.0	 1	    1.00000	    0.00000	 138.0	 1	    1.10000	    0.90000;
	122	 1	 0.0	 0.0	 0.0	 0.0	 1	    1.00000	    0.00000	 69.0	 1	    1.10000	    0.90000;
	123	 1	 77.38747	 23.99223	 0.0	 0.0	 1	    1.00000	    0.00000	 138.0	 1	    1.10000	    0.90000;
	124	 1	 0.0	 0.0	 0.0	 0.0	 1	    1.00000	    0.00000	 138.0	 1	    1.10000	    0.90000;
	125	 1	 0.0	 0.0	 0.0	 0.0	 1	    1.00000	    0.00000	 69.0	 1	    1.10000	    0.90000;
	126	 1	 50.036685	 18.8862	 0.0	 0.0	 1	    1.00000	    0.00000	 138.0	 1	    1.10000	    0.90000;
	127	 1	 25.701199	 6.4513541	 0.0	 0.0	 1	    1.00000	    0.00000	 69.0	 1	    1.10000	    0.90000;
	128	 1	 31.024184	 7.4663783	 0.0	 0.000271209085663	 1	    1.00000	    0.00000	 69.0	 1	    1.10000	    0.90000;
	129	 1	 0.0	 0.0	 0.0	 0.0	 1	    1.00000	    0.00000	 69.0	 1	    1.10000	    0.90000;
	130	 1	 73.035237	 12.276959	 0.0	 0.0	 1	    1.00000	    0.00000	 69.0	 1	    1.10000	    0.90000;
	131	 1	 41.142072	 21.889228	 0.0	 168.570002396	 1	    1.00000	    0.00000	 69.0	 1	    1.10000	    0.90000;
	132	 1	 0.0	 0.0	 0.0	 0.0	 1	    1.00000	    0.00000	 138.0	 1	    1.10000	    0.90000;
	133	 1	 70.971277	 13.03429	 0.0	 0.0	 1	    1.00000	    0.00000	 69.0	 1	    1.10000	    0.90000;
	134	 1	 0.0	 0.0	 0.0	 0.0	 1	    1.00000	    0.00000	 138.0	 1	    1.10000	    0.90000;
	135	 1	 0.0	 0.0	 0.0	 0.0	 1	    1.00000	    0.00000	 138.0	 1	    1.10000	    0.90000;
	136	 1	 0.0	 0.0	 0.0	 0.0	 1	    1.00000	    0.00000	 69.0	 1	    1.10000	    0.90000;
	137	 1	 135.163	 17.105692	 0.0	 0.0	 1	    1.00000	    0.00000	 138.0	 1	    1.10000	    0.90000;
	138	 1	 43.01499	 5.0493889	 0.0	 0.0	 1	    1.00000	    0.00000	 69.0	 1	    1.10000	    0.90000;
	139	 1	 0.0	 0.0	 0.0	 0.0	 1	    1.00000	    0.00000	 138.0	 1	    1.10000	    0.90000;
	140	 1	 97.888643	 58.600837	 0.0	 0.0	 1	    1.00000	    0.00000	 69.0	 1	    1.10000	    0.90000;
	141	 1	 0.0	 0.0	 0.0	 0.0	 1	    1.00000	    0.00000	 138.0	 1	    1.10000	    0.90000;
	142	 1	 0.0	 0.0	 0.0	 0.0	 1	    1.00000	    0.00000	 138.0	 1	    1.10000	    0.90000;
	143	 1	 0.0	 0.0	 0.0	 0.0	 1	    1.00000	    0.00000	 69.0	 1	    1.10000	    0.90000;
	144	 1	 80.88225	 15.434356	 0.0	 0.0	 1	    1.00000	    0.00000	 138.0	 1	    1.10000	    0.90000;
	145	 1	 45.810324	 5.309578	 0.0	 0.0	 1	    1.00000	    0.00000	 69.0	 1	    1.10000	    0.90000;
	146	 1	 39.973054	 8.7672214	 0.0	 0.0	 1	    1.00000	    0.00000	 69.0	 1	    1.10000	    0.90000;
	147	 1	 0.0	 0.0	 0.0	 0.0	 1	    1.00000	    0.00000	 138.0	 1	    1.10000	    0.90000;
	148	 1	 0.0	 0.0	 0.0	 0.0	 1	    1.00000	    0.00000	 69.0	 1	    1.10000	    0.90000;
	149	 1	 69.114811	 16.155095	 0.0	 0.0	 1	    1.00000	    0.00000	 138.0	 1	    1.10000	    0.90000;
	150	 1	 50.329488	 6.2763458	 0.0	 0.0	 1	    1.00000	    0.00000	 69.0	 1	    1.10000	    0.90000;
	151	 1	 0.0	 0.0	 0.0	 0.0	 1	    1.00000	    0.00000	 138.0	 1	    1.10000	    0.90000;
	152	 1	 0.0	 0.0	 0.0	 0.0	 1	    1.00000	    0.00000	 69.0	 1	    1.10000	    0.90000;
	153	 1	 54.464316	 6.3389867	 0.0	 0.0	 1	    1.00000	    0.00000	 138.0	 1	    1.10000	    0.90000;
	154	 1	 76.293089	 16.102405	 0.0	 0.0	 1	    1.00000	    0.00000	 69.0	 1	    1.10000	    0.90000;
	155	 1	 48.138363	 2.1361487	 0.0	 0.0	 1	    1.00000	    0.00000	 69.0	 1	    1.10000	    0.90000;
	156	 1	 48.095052	 21.38875	 0.0	 0.0	 1	    1.00000	    0.00000	 69.0	 1	    1.10000	    0.90000;
	157	 1	 45.6242	 11.938822	 0.0	 0.0	 1	    1.00000	    0.00000	 138.0	 1	    1.10000	    0.90000;
	158	 1	 71.854584	 17.031862	 0.0	 0.0	 1	    1.00000	    0.00000	 138.0	 1	    1.10000	    0.90000;
	159	 1	 0.0	 0.0	 0.0	 371.14047516	 1	    1.00000	    0.00000	 345.0	 1	    1.10000	    0.90000;
	160	 1	 0.0	 0.0	 0.0	 0.0	 1	    1.00000	    0.00000	 138.0	 1	    1.10000	    0.90000;
	161	 1	 0.0	 0.0	 0.0	 0.0	 1	    1.00000	    0.00000	 69.0	 1	    1.10000	    0.90000;
	162	 1	 71.133321	 10.304815	 0.0	 0.0	 1	    1.00000	    0.00000	 138.0	 1	    1.10000	    0.90000;
	163	 1	 42.982584	 10.440698	 0.0	 0.0	 1	    1.00000	    0.00000	 69.0	 1	    1.10000	    0.90000;
	164	 1	 27.968725	 7.4335923	 0.0	 0.0	 1	    1.00000	    0.00000	 69.0	 1	    1.10000	    0.90000;
	165	 1	 0.0	 0.0	 0.0	 0.0	 1	    1.00000	    0.00000	 138.0	 1	    1.10000	    0.90000;
	166	 1	 0.0	 0.0	 0.0	 0.0	 1	    1.00000	    0.00000	 69.0	 1	    1.10000	    0.90000;
	167	 1	 136.34574	 82.948765	 0.0	 0.0	 1	    1.00000	    0.00000	 138.0	 1	    1.10000	    0.90000;
	168	 1	 25.153536	 4.7858244	 0.0	 0.0	 1	    1.00000	    0.00000	 69.0	 1	    1.10000	    0.90000;
	169	 1	 48.057962	 12.787909	 0.0	 27.4224213741	 1	    1.00000	    0.00000	 69.0	 1	    1.10000	    0.90000;
	170	 1	 0.0	 0.0	 0.0	 0.0	 1	    1.00000	    0.00000	 138.0	 1	    1.10000	    0.90000;
	171	 1	 0.0	 0.0	 0.0	 0.0	 1	    1.00000	    0.00000	 69.0	 1	    1.10000	    0.90000;
	172	 1	 64.99125	 15.347642	 0.0	 0.0	 1	    1.00000	    0.00000	 138.0	 1	    1.10000	    0.90000;
	173	 1	 49.812493	 25.789267	 0.0	 61.4828684306	 1	    1.00000	    0.00000	 69.0	 1	    1.10000	    0.90000;
	174	 1	 0.0	 0.0	 0.0	 0.0	 1	    1.00000	    0.00000	 138.0	 1	    1.10000	    0.90000;
	175	 1	 0.0	 0.0	 0.0	 0.0	 1	    1.00000	    0.00000	 69.0	 1	    1.10000	    0.90000;
	176	 1	 67.457252	 7.9139351	 0.0	 0.0	 1	    1.00000	    0.00000	 138.0	 1	    1.10000	    0.90000;
	177	 1	 32.640671	 8.9909054	 0.0	 60.0971715131	 1	    1.00000	    0.00000	 69.0	 1	    1.10000	    0.90000;
	178	 1	 21.471577	 4.7353379	 0.0	 41.5651119656	 1	    1.00000	    0.00000	 69.0	 1	    1.10000	    0.90000;
	179	 1	 43.099563	 5.0539475	 0.0	 0.0	 1	    1.00000	    0.00000	 69.0	 1	    1.10000	    0.90000;
	180	 1	 29.859917	 4.3108127	 0.0	 0.0	 1	    1.00000	    0.00000	 69.0	 1	    1.10000	    0.90000;
	181	 1	 0.0	 0.0	 0.0	 0.0	 1	    1.00000	    0.00000	 138.0	 1	    1.10000	    0.90000;
	182	 1	 0.0	 0.0	 0.0	 0.0	 1	    1.00000	    0.00000	 69.0	 1	    1.10000	    0.90000;
	183	 1	 74.524277	 17.467453	 0.0	 0.0	 1	    1.00000	    0.00000	 138.0	 1	    1.10000	    0.90000;
	184	 1	 38.357391	 2.7000183	 0.0	 0.0	 1	    1.00000	    0.00000	 69.0	 1	    1.10000	    0.90000;
	185	 1	 27.52708	 4.7391381	 0.0	 0.0	 1	    1.00000	    0.00000	 69.0	 1	    1.10000	    0.90000;
	186	 1	 35.411356	 8.3667711	 0.0	 -63.3799211635	 1	    1.00000	    0.00000	 69.0	 1	    1.10000	    0.90000;
	187	 1	 33.45286	 10.163847	 0.0	 0.0	 1	    1.00000	    0.00000	 69.0	 1	    1.10000	    0.90000;
	188	 1	 0.0	 0.0	 0.0	 0.0	 1	    1.00000	    0.00000	 138.0	 1	    1.10000	    0.90000;
	189	 1	 0.0	 0.0	 0.0	 0.0	 1	    1.00000	    0.00000	 69.0	 1	    1.10000	    0.90000;
	190	 1	 54.302808	 12.182942	 0.0	 0.0	 1	    1.00000	    0.00000	 138.0	 1	    1.10000	    0.90000;
	191	 1	 0.0	 0.0	 0.0	 0.0	 1	    1.00000	    0.00000	 138.0	 1	    1.10000	    0.90000;
	192	 1	 50.603533	 21.904329	 0.0	 0.0	 1	    1.00000	    0.00000	 69.0	 1	    1.10000	    0.90000;
	193	 1	 0.0	 0.0	 0.0	 0.0	 1	    1.00000	    0.00000	 138.0	 1	    1.10000	    0.90000;
	194	 1	 0.0	 0.0	 0.0	 0.0	 1	    1.00000	    0.00000	 138.0	 1	    1.10000	    0.90000;
	195	 1	 0.0	 0.0	 0.0	 0.0	 1	    1.00000	    0.00000	 69.0	 1	    1.10000	    0.90000;
	196	 1	 46.960527	 7.8248051	 0.0	 0.0	 1	    1.00000	    0.00000	 138.0	 1	    1.10000	    0.90000;
	197	 1	 39.102226	 8.7138343	 0.0	 0.0	 1	    1.00000	    0.00000	 69.0	 1	    1.10000	    0.90000;
	198	 1	 0.0	 0.0	 0.0	 0.0	 1	    1.00000	    0.00000	 69.0	 1	    1.10000	    0.90000;
	199	 1	 28.057407	 3.7781352	 0.0	 0.000175080156541	 1	    1.00000	    0.00000	 69.0	 1	    1.10000	    0.90000;
	200	 1	 35.117549	 13.890588	 0.0	 0.0	 1	    1.00000	    0.00000	 69.0	 1	    1.10000	    0.90000;
...
];

%% generator data
%	bus	Pg	Qg	Qmax	Qmin	Vg	mBase	status	Pmax	Pmin
mpc.gen = [
	511	 199.3925	 57.0965	 146.041	 -31.848	 1.0	 286.92	 1	 286.917	 111.868;
	512	 211.815	 57.0965	 146.041	 -31.848	 1.0	 286.92	 1	 286.917	 136.713;
	513	 202.3985	 57.0965	 146.041	 -31.848	 1.0	 286.92	 1	 286.917	 117.88;
	514	 203.4165	 57.0965	 146.041	 -31.848	 1.0	 286.92	 1	 286.917	 119.916;
	515	 215.024	 57.0965	 146.041	 -31.848	 1.0	 286.92	 1	 286.917	 143.131;
	516	 176.202	 57.0965	 146.041	 -31.848	 1.0	 286.92	 1	 286.917	 65.487;
	518	 17.532	 5.273	 13.488	 -2.942	 1.0	 26.5	 1	 26.5	 8.564;
	522	 605.927	 117.06	 301.245	 -67.125	 1.0	 818.6	 1	 818.6	 393.254;
	523	 455.499	 117.06	 301.245	 -67.125	 1.0	 818.6	 1	 818.6	 92.398;
	525	 0.0	 0.0	 3.02	 -0.659	 1.0	 5.93	 0	 5.933	 1.3;
	525	 0.0	 0.0	 3.02	 -0.659	 1.0	 5.93	 0	 5.933	 1.833;
	525	 0.0	 0.0	 3.02	 -0.659	 1.0	 5.93	 0	 5.933	 2.076;
	525	 0.0	 0.0	 3.02	 -0.659	 1.0	 5.93	 0	 5.933	 1.712;
	525	 0.0	 0.0	 3.02	 -0.659	 1.0	 5.93	 0	 5.933	 1.58;
	525	 0.0	 0.0	 3.02	 -0.659	 1.0	 5.93	 0	 5.933	 1.676;
	529	 0.0	 0.0	 124.603	 -27.173	 1.0	 244.8	 0	 244.8	 40.619;
	530	 147.451	 48.715	 124.603	 -27.173	 1.0	 244.8	 1	 244.8	 50.102;
	531	 174.0605	 48.715	 124.603	 -27.173	 1.0	 244.8	 1	 244.8	 103.321;
	532	 168.6685	 48.715	 124.603	 -27.173	 1.0	 244.8	 1	 244.8	 92.537;
	533	 163.709	 48.715	 124.603	 -27.173	 1.0	 244.8	 1	 244.8	 82.618;
	536	 276.28	 69.144	 187.332	 -49.044	 1.0	 402.0	 1	 402.0	 150.56;
	537	 286.569	 69.144	 187.332	 -49.044	 1.0	 402.0	 1	 402.0	 171.138;
	539	 2.051	 0.631	 1.709	 -0.447	 1.0	 3.67	 1	 3.667	 0.435;
	539	 2.4735	 0.631	 1.709	 -0.447	 1.0	 3.67	 1	 3.667	 1.28;
	539	 2.742	 0.631	 1.709	 -0.447	 1.0	 3.67	 1	 3.667	 1.817;
	539	 2.283	 0.631	 1.709	 -0.447	 1.0	 3.67	 1	 3.667	 0.899;
	539	 0.0	 0.0	 1.709	 -0.447	 1.0	 3.67	 0	 3.667	 1.289;
	539	 0.0	 0.0	 1.709	 -0.447	 1.0	 3.67	 0	 3.667	 1.159;
	542	 0.0	 0.0	 88.43	 -19.284	 1.0	 173.73	 0	 173.733	 56.291;
	543	 111.8905	 34.573	 88.43	 -19.284	 1.0	 173.73	 1	 173.733	 50.048;
	544	 127.1945	 34.573	 88.43	 -19.284	 1.0	 173.73	 1	 173.733	 80.656;
	545	 0.0	 0.0	 88.43	 -19.284	 1.0	 173.73	 0	 173.733	 73.088;
	546	 116.4245	 34.573	 88.43	 -19.284	 1.0	 173.73	 1	 173.733	 59.116;
	547	 111.503	 34.573	 88.43	 -19.284	 1.0	 173.73	 1	 173.733	 49.273;
	551	 624.0895	 154.44	 397.44	 -88.56	 1.0	 1080.0	 1	 1080.0	 168.179;
	552	 626.361	 154.44	 397.44	 -88.56	 1.0	 1080.0	 1	 1080.0	 172.722;
	554	 49.9325	 13.612	 34.816	 -7.592	 1.0	 68.4	 1	 68.4	 31.465;
	554	 43.5455	 13.612	 34.816	 -7.592	 1.0	 68.4	 1	 68.4	 18.691;
	554	 43.997	 13.612	 34.816	 -7.592	 1.0	 68.4	 1	 68.4	 19.594;
	554	 48.079	 13.612	 34.816	 -7.592	 1.0	 68.4	 1	 68.4	 27.758;
	554	 0.0	 0.0	 34.816	 -7.592	 1.0	 68.4	 0	 68.4	 26.86;
	554	 41.136	 13.612	 34.816	 -7.592	 1.0	 68.4	 1	 68.4	 13.872;
	558	 75.428	 27.223	 69.631	 -15.185	 1.0	 136.8	 1	 136.8	 14.056;
	559	 0.0	 0.0	 69.631	 -15.185	 1.0	 136.8	 0	 136.8	 64.405;
	560	 0.0	 0.0	 69.631	 -15.185	 1.0	 136.8	 0	 136.8	 41.032;
	561	 82.724	 27.223	 69.631	 -15.185	 1.0	 136.8	 1	 136.8	 28.648;
	562	 78.8815	 27.223	 69.631	 -15.185	 1.0	 136.8	 1	 136.8	 20.963;
	563	 86.6705	 27.223	 69.631	 -15.185	 1.0	 136.8	 1	 136.8	 36.541;
	567	 461.7685	 141.39	 361.645	 -78.865	 1.0	 710.5	 1	 710.5	 213.037;
	568	 419.9705	 141.39	 361.645	 -78.865	 1.0	 710.5	 1	 710.5	 129.441;
	569	 523.346	 141.39	 361.645	 -78.865	 1.0	 710.5	 1	 710.5	 336.192;
	570	 393.325	 141.39	 361.645	 -78.865	 1.0	 710.5	 1	 710.5	 76.15;
	571	 0.0	 0.0	 361.645	 -78.865	 1.0	 710.5	 0	 710.5	 73.471;
	572	 0.0	 0.0	 361.645	 -78.865	 1.0	 710.5	 0	 710.5	 216.649;
	574	 0.0	 0.0	 57.784	 -15.128	 1.0	 124.0	 0	 124.0	 57.005;
	575	 85.8	 21.328	 57.784	 -15.128	 1.0	 124.0	 1	 124.0	 47.6;
	576	 87.0925	 21.328	 57.784	 -15.128	 1.0	 124.0	 1	 124.0	 50.185;
	577	 68.35	 21.328	 57.784	 -15.128	 1.0	 124.0	 1	 124.0	 12.7;
	578	 70.853	 21.328	 57.784	 -15.128	 1.0	 124.0	 1	 124.0	 17.706;
	579	 0.0	 0.0	 57.784	 -15.128	 1.0	 124.0	 0	 124.0	 36.442;
	581	 13.283	 3.6265	 9.825	 -2.572	 1.0	 21.08	 1	 21.083	 5.483;
	582	 13.656	 3.6265	 9.825	 -2.572	 1.0	 21.08	 1	 21.083	 6.229;
	582	 13.6685	 3.6265	 9.825	 -2.572	 1.0	 21.08	 1	 21.083	 6.254;
	582	 0.0	 0.0	 9.825	 -2.572	 1.0	 21.08	 0	 21.083	 7.482;
	582	 12.7	 3.6265	 9.825	 -2.572	 1.0	 21.08	 1	 21.083	 4.317;
	582	 0.0	 0.0	 9.825	 -2.572	 1.0	 21.08	 0	 21.083	 7.684;
	587	 119.022	 36.019	 92.129	 -20.091	 1.0	 181.0	 1	 181.0	 57.044;
	588	 123.0775	 36.019	 92.129	 -20.091	 1.0	 181.0	 1	 181.0	 65.155;
	590	 8.913	 3.124	 7.991	 -1.743	 1.0	 15.7	 1	 15.7	 2.126;
	590	 10.352	 3.124	 7.991	 -1.743	 1.0	 15.7	 1	 15.7	 5.004;
	594	 233.1585	 64.4265	 164.789	 -35.936	 1.0	 323.75	 1	 323.75	 142.567;
	595	 0.0	 0.0	 164.789	 -35.936	 1.0	 323.75	 0	 323.75	 54.778;
	596	 235.478	 64.4265	 164.789	 -35.936	 1.0	 323.75	 1	 323.75	 147.206;
	597	 185.277	 64.4265	 164.789	 -35.936	 1.0	 323.75	 1	 323.75	 46.804;
	599	 0.0	 0.0	 3.169	 -0.83	 1.0	 6.8	 0	 6.8	 3.324;
	599	 0.0	 0.0	 3.169	 -0.83	 1.0	 6.8	 0	 6.8	 0.698;
	599	 0.0	 0.0	 3.169	 -0.83	 1.0	 6.8	 0	 6.8	 0.905;
	599	 0.0	 0.0	 3.169	 -0.83	 1.0	 6.8	 0	 6.8	 1.101;
	599	 0.0	 0.0	 3.169	 -0.83	 1.0	 6.8	 0	 6.8	 3.201;
	599	 0.0	 0.0	 3.169	 -0.83	 1.0	 6.8	 0	 6.8	 2.569;
	1208	 0.0	 0.0	 5.701	 -1.243	 1.0	 11.2	 0	 11.2	 2.558;
	1208	 0.0	 0.0	 5.701	 -1.243	 1.0	 11.2	 0	 11.2	 3.605;
	1212	 91.7425	 28.357	 72.532	 -15.818	 1.0	 142.5	 1	 142.5	 40.985;
	1213	 0.0	 0.0	 72.532	 -15.818	 1.0	 142.5	 0	 142.5	 55.372;
	1214	 86.6565	 28.357	 72.532	 -15.818	 1.0	 142.5	 1	 142.5	 30.813;
	1216	 57.1245	 17.313	 44.283	 -9.657	 1.0	 87.0	 1	 87.0	 27.249;
	1216	 52.097	 17.313	 44.283	 -9.657	 1.0	 87.0	 1	 87.0	 17.194;
	1219	 56.0685	 14.4825	 39.237	 -10.272	 1.0	 84.2	 1	 84.2	 27.937;
	1219	 46.75	 14.4825	 39.237	 -10.272	 1.0	 84.2	 1	 84.2	 9.3;
	1219	 47.4475	 14.4825	 39.237	 -10.272	 1.0	 84.2	 1	 84.2	 10.695;
	1219	 53.92	 14.4825	 39.237	 -10.272	 1.0	 84.2	 1	 84.2	 23.64;
	1219	 56.779	 14.4825	 39.237	 -10.272	 1.0	 84.2	 1	 84.2	 29.358;
	1219	 55.1095	 14.4825	 39.237	 -10.272	 1.0	 84.2	 1	 84.2	 26.019;
	1226	 0.0	 0.0	 101.23	 -22.076	 1.0	 198.88	 0	 198.88	 47.086;
	1227	 127.5005	 39.577	 101.23	 -22.076	 1.0	 198.88	 1	 198.88	 56.121;
	1228	 130.3675	 39.577	 101.23	 -22.076	 1.0	 198.88	 1	 198.88	 61.855;
	1229	 135.5645	 39.577	 101.23	 -22.076	 1.0	 198.88	 1	 198.88	 72.249;
	1230	 0.0	 0.0	 101.23	 -22.076	 1.0	 198.88	 0	 198.88	 76.895;
	1232	 0.0	 0.0	 2.723	 -0.594	 1.0	 5.35	 0	 5.35	 2.222;
	1233	 0.0	 0.0	 2.723	 -0.594	 1.0	 5.35	 0	 5.35	 2.517;
	1237	 129.6835	 40.934	 104.701	 -22.833	 1.0	 205.7	 1	 205.7	 53.667;
	1238	 0.0	 0.0	 104.701	 -22.833	 1.0	 205.7	 0	 205.7	 30.887;
	1243	 145.9405	 39.681	 101.495	 -22.133	 1.0	 199.4	 1	 199.4	 92.481;
	1244	 123.285	 39.681	 101.495	 -22.133	 1.0	 199.4	 1	 199.4	 47.17;
	1246	 0.0	 0.0	 21.378	 -4.662	 1.0	 42.0	 0	 42.0	 17.993;
	1251	 99.6825	 35.9	 91.824	 -20.024	 1.0	 180.4	 1	 180.4	 18.965;
	1252	 104.498	 35.9	 91.824	 -20.024	 1.0	 180.4	 1	 180.4	 28.596;
	1253	 0.0	 0.0	 91.824	 -20.024	 1.0	 180.4	 0	 180.4	 62.389;
	1256	 210.1575	 66.811	 170.888	 -37.266	 1.0	 335.73	 1	 335.733	 84.582;
	1257	 0.0	 0.0	 170.888	 -37.266	 1.0	 335.73	 0	 335.733	 129.272;
	1258	 195.9485	 66.811	 170.888	 -37.266	 1.0	 335.73	 1	 335.733	 56.164;
	1259	 203.09	 66.811	 170.888	 -37.266	 1.0	 335.73	 1	 335.733	 70.447;
	1260	 0.0	 0.0	 170.888	 -37.266	 1.0	 335.73	 0	 335.733	 47.366;
	1261	 208.251	 66.811	 170.888	 -37.266	 1.0	 335.73	 1	 335.733	 80.769;
	1262	 0.0	 0.0	 0.865	 -0.189	 1.0	 1.7	 0	 1.7	 0.215;
	1266	 0.0	 0.0	 216.457	 -56.669	 1.0	 464.5	 0	 464.5	 117.172;
	1267	 0.0	 0.0	 216.457	 -56.669	 1.0	 464.5	 0	 464.5	 81.768;
	1271	 132.243	 36.218	 92.638	 -20.202	 1.0	 182.0	 1	 182.0	 82.486;
	1272	 130.3275	 36.218	 92.638	 -20.202	 1.0	 182.0	 1	 182.0	 78.655;
	1273	 111.3065	 36.218	 92.638	 -20.202	 1.0	 182.0	 1	 182.0	 40.613;
	1274	 124.9885	 36.218	 92.638	 -20.202	 1.0	 182.0	 1	 182.0	 67.977;
	1277	 0.0	 0.0	 23.176	 -5.054	 1.0	 45.53	 0	 45.533	 22.712;
	1277	 0.0	 0.0	 23.176	 -5.054	 1.0	 45.53	 0	 45.533	 4.714;
	1277	 0.0	 0.0	 23.176	 -5.054	 1.0	 45.53	 0	 45.533	 8.36;
	1281	 144.997	 49.869	 127.555	 -27.817	 1.0	 250.6	 1	 250.6	 39.394;
	1282	 170.8875	 49.869	 127.555	 -27.817	 1.0	 250.6	 1	 250.6	 91.175;
	1283	 0.0	 0.0	 127.555	 -27.817	 1.0	 250.6	 0	 250.6	 104.51;
	1284	 186.507	 49.869	 127.555	 -27.817	 1.0	 250.6	 1	 250.6	 122.414;
	1285	 155.499	 49.869	 127.555	 -27.817	 1.0	 250.6	 1	 250.6	 60.398;
	1289	 0.0	 0.0	 109.299	 -23.835	 1.0	 214.73	 0	 214.733	 106.491;
	1290	 0.0	 0.0	 109.299	 -23.835	 1.0	 214.73	 0	 214.733	 100.357;
	1291	 142.397	 42.732	 109.299	 -23.835	 1.0	 214.73	 1	 214.733	 70.061;
	1295	 224.2795	 64.4265	 164.789	 -35.936	 1.0	 323.75	 1	 323.75	 124.809;
	1296	 241.37	 64.4265	 164.789	 -35.936	 1.0	 323.75	 1	 323.75	 158.99;
	1297	 222.095	 64.4265	 164.789	 -35.936	 1.0	 323.75	 1	 323.75	 120.44;
	1298	 230.6285	 64.4265	 164.789	 -35.936	 1.0	 323.75	 1	 323.75	 137.507;
	1300	 0.0	 0.0	 1.476	 -0.322	 1.0	 2.9	 0	 2.9	 1.047;
	1300	 50.0395	 13.91	 35.579	 -7.759	 1.0	 69.9	 1	 69.9	 30.179;
	1300	 48.9705	 13.91	 35.579	 -7.759	 1.0	 69.9	 1	 69.9	 28.041;
	1300	 40.167	 13.91	 35.579	 -7.759	 1.0	 69.9	 1	 69.9	 10.434;
	1300	 46.6465	 13.91	 35.579	 -7.759	 1.0	 69.9	 1	 69.9	 23.393;
	1301	 0.0	 0.0	 1.476	 -0.322	 1.0	 2.9	 0	 2.9	 0.497;
	1303	 137.322	 45.6575	 116.782	 -25.467	 1.0	 229.43	 1	 229.433	 45.211;
	1303	 0.0	 0.0	 116.782	 -25.467	 1.0	 229.43	 0	 229.433	 51.807;
	1303	 158.8135	 45.6575	 116.782	 -25.467	 1.0	 229.43	 1	 229.433	 88.194;
	1308	 0.0	 0.0	 89.482	 -19.514	 1.0	 175.8	 0	 175.8	 61.666;
	1309	 111.237	 34.984	 89.482	 -19.514	 1.0	 175.8	 1	 175.8	 46.674;
	1310	 125.8785	 34.984	 89.482	 -19.514	 1.0	 175.8	 1	 175.8	 75.957;
	1311	 0.0	 0.0	 89.482	 -19.514	 1.0	 175.8	 0	 175.8	 23.848;
	1313	 0.79	 0.2065	 0.559	 -0.146	 1.0	 1.2	 1	 1.2	 0.38;
	1313	 0.0	 0.0	 3.883	 -1.017	 1.0	 8.33	 0	 8.333	 1.146;
	1313	 0.809	 0.2065	 0.559	 -0.146	 1.0	 1.2	 1	 1.2	 0.418;
	1313	 1.4495	 0.43	 1.165	 -0.305	 1.0	 2.5	 1	 2.5	 0.399;
	1313	 1.5575	 0.43	 1.165	 -0.305	 1.0	 2.5	 1	 2.5	 0.615;
	1313	 0.0	 0.0	 3.883	 -1.017	 1.0	 8.33	 0	 8.333	 2.53;
	1313	 0.0	 0.0	 3.883	 -1.017	 1.0	 8.33	 0	 8.333	 2.739;
	1313	 5.963	 1.433	 3.883	 -1.017	 1.0	 8.33	 1	 8.333	 3.593;
	1313	 5.5175	 1.433	 3.883	 -1.017	 1.0	 8.33	 1	 8.333	 2.702;
	1313	 0.0	 0.0	 3.883	 -1.017	 1.0	 8.33	 0	 8.333	 3.708;
	1318	 122.399	 39.8	 101.8	 -22.2	 1.0	 200.0	 1	 200.0	 44.798;
	1319	 140.125	 39.8	 101.8	 -22.2	 1.0	 200.0	 1	 200.0	 80.25;
	1320	 131.923	 39.8	 101.8	 -22.2	 1.0	 200.0	 1	 200.0	 63.846;
	1325	 564.028	 160.734	 435.477	 -114.009	 1.0	 934.5	 1	 934.5	 193.556;
	1326	 658.5845	 160.734	 435.477	 -114.009	 1.0	 934.5	 1	 934.5	 382.669;
	1328	 31.719	 9.7525	 26.422	 -6.917	 1.0	 56.7	 1	 56.7	 6.738;
	1328	 33.4295	 9.7525	 26.422	 -6.917	 1.0	 56.7	 1	 56.7	 10.159;
	1328	 37.3085	 9.7525	 26.422	 -6.917	 1.0	 56.7	 1	 56.7	 17.917;
	1328	 36.575	 9.7525	 26.422	 -6.917	 1.0	 56.7	 1	 56.7	 16.45;
	1330	 48.1835	 17.114	 43.774	 -9.546	 1.0	 86.0	 1	 86.0	 10.367;
	1330	 53.2595	 17.114	 43.774	 -9.546	 1.0	 86.0	 1	 86.0	 20.519;
	1330	 58.9985	 17.114	 43.774	 -9.546	 1.0	 86.0	 1	 86.0	 31.997;
	1332	 0.0	 0.0	 0.0	 0.0	 1.0	 1.0	 0	 1.0	 0.404;
	1332	 2.013	 0.0	 0.0	 0.0	 1.0	 2.7	 1	 2.7	 1.326;
	1332	 2.1075	 0.0	 0.0	 0.0	 1.0	 3.5	 1	 3.5	 0.715;
	1332	 17.664	 0.0	 0.0	 0.0	 1.0	 25.0	 1	 25.0	 10.328;
	1336	 88.498	 27.6705	 70.776	 -15.435	 1.0	 139.05	 1	 139.05	 37.946;
	1337	 101.1105	 27.6705	 70.776	 -15.435	 1.0	 139.05	 1	 139.05	 63.171;
	1341	 0.0	 0.0	 169.531	 -44.384	 1.0	 363.8	 0	 363.8	 134.77;
	1343	 31.949	 9.313	 23.821	 -5.195	 1.0	 46.8	 1	 46.8	 17.098;
	1345	 0.0	 0.0	 19.495	 -4.251	 1.0	 38.3	 0	 38.3	 4.815;
	1346	 0.0	 0.0	 19.495	 -4.251	 1.0	 38.3	 0	 38.3	 17.942;
	1346	 0.0	 0.0	 19.495	 -4.251	 1.0	 38.3	 0	 38.3	 17.183;
	1346	 0.0	 0.0	 19.495	 -4.251	 1.0	 38.3	 0	 38.3	 12.737;
	1348	 0.0	 0.0	 2.087	 -0.455	 1.0	 4.1	 0	 4.1	 1.28;
	1348	 0.0	 0.0	 2.087	 -0.455	 1.0	 4.1	 0	 4.1	 0.484;
	1350	 3.192	 0.0	 0.0	 0.0	 1.0	 5.1	 1	 5.1	 1.284;
	1350	 5.955	 0.0	 0.0	 0.0	 1.0	 10.0	 1	 10.0	 1.91;
	1352	 0.0	 0.0	 8.947	 -2.342	 1.0	 19.2	 0	 19.2	 3.432;
	1354	 0.0	 0.0	 13.539	 -2.953	 1.0	 26.6	 0	 26.6	 8.702;
	1356	 0.0	 0.0	 17.153	 -3.741	 1.0	 33.7	 0	 33.7	 11.2;
	1360	 287.578	 81.2085	 207.714	 -45.297	 1.0	 408.08	 1	 408.083	 167.073;
	1361	 0.0	 0.0	 207.714	 -45.297	 1.0	 408.08	 0	 408.083	 44.635;
	1362	 275.2035	 81.2085	 207.714	 -45.297	 1.0	 408.08	 1	 408.083	 142.324;
	1363	 0.0	 0.0	 207.714	 -45.297	 1.0	 408.08	 0	 408.083	 195.064;
	1364	 279.582	 81.2085	 207.714	 -45.297	 1.0	 408.08	 1	 408.083	 151.081;
	1365	 245.173	 81.2085	 207.714	 -45.297	 1.0	 408.08	 1	 408.083	 82.263;
	1370	 0.0	 0.0	 212.321	 -55.586	 1.0	 455.63	 0	 455.625	 138.412;
	1371	 0.0	 0.0	 212.321	 -55.586	 1.0	 455.63	 0	 455.625	 88.104;
	1372	 0.0	 0.0	 212.321	 -55.586	 1.0	 455.63	 0	 455.625	 105.861;
	1373	 0.0	 0.0	 212.321	 -55.586	 1.0	 455.63	 0	 455.625	 111.3;
...
];

%% generator cost data
%	2	startup	shutdown	n	c(n-1)	...	c0
mpc.gencost = [
	2	 0.0	 0.0	 3	   0.016330	  21.370000	  -2.678000;
	2	 0.0	 0.0	 3	   0.012020	  21.100000	  -2.186000;
	2	 0.0	 0.0	 3	   0.016560	  22.010000	  -2.770000;
	2	 0.0	 0.0	 3	   0.012130	  19.750000	  -2.049000;
	2	 0.0	 0.0	 3	   0.014590	  24.090000	  -2.724000;
	2	 0.0	 0.0	 3	   0.019080	  19.760000	  -2.386000;
2	0.0	0.0	3	0.2	17.000000	-1.619000;
	2	 0.0	 0.0	 3	   0.001030	   9.129000	   0.000000;
	2	 0.0	 0.0	 3	   0.001759	   8.167000	   0.000000;
2	0.0	0.0	3	0.2	17.390000	0.000000;
2	0.0	0.0	3	0.2	14.990000	0.000000;
2	0.0	0.0	3	0.2	14.550000	0.000000;
2	0.0	0.0	3	0.2	14.170000	0.000000;
2	0.0	0.0	3	0.2	16.790000	0.000000;
2	0.0	0.0	3	0.2	17.210000	0.000000;
	2	 0.0	 0.0	 3	   0.026360	  20.610000	  -2.442000;
	2	 0.0	 0.0	 3	   0.019850	  17.370000	  -2.014000;
	2	 0.0	 0.0	 3	   0.014020	  21.620000	  -2.032000;
	2	 0.0	 0.0	 3	   0.015900	  19.400000	  -2.187000;
	2	 0.0	 0.0	 3	   0.019070	  19.250000	  -2.470000;
2	0.0	0.0	3	0.2	30.000000	0.000000;
2	0.0	0.0	3	0.2	30.000000	0.000000;
2	0.0	0.0	3	0.2	30.000000	0.000000;
2	0.0	0.0	3	0.2	30.000000	0.000000;
2	0.0	0.0	3	0.2	30.000000	0.000000;
2	0.0	0.0	3	0.2	30.000000	0.000000;
2	0.0	0.0	3	0.2	30.000000	0.000000;
2	0.0	0.0	3	0.2	30.000000	0.000000;
	2	 0.0	 0.0	 3	   0.018820	  19.240000	  -1.694000;
	2	 0.0	 0.0	 3	   0.013910	  16.010000	  -1.180000;
	2	 0.0	 0.0	 3	   0.010590	  18.900000	  -1.149000;
	2	 0.0	 0.0	 3	   0.016170	  21.530000	  -1.659000;
	2	 0.0	 0.0	 3	   0.013830	  17.440000	  -1.276000;
	2	 0.0	 0.0	 3	   0.013920	  15.920000	  -1.169000;
	2	 0.0	 0.0	 3	   0.001700	   8.322000	   0.000000;
	2	 0.0	 0.0	 3	   0.001699	   8.325000	   0.000000;
2	0.0	0.0	3	0.2	17.950000	0.000000;
2	0.0	0.0	3	0.2	15.700000	-13.460000;
2	0.0	0.0	3	0.2	17.590000	-15.850000;
2	0.0	0.0	3	0.2	16.800000	0.000000;
2	0.0	0.0	3	0.2	18.720000	0.000000;
2	0.0	0.0	3	0.2	15.600000	-12.390000;
	2	 0.0	 0.0	 3	   0.014500	  14.870000	   0.000000;
	2	 0.0	 0.0	 3	   0.011840	  18.040000	  -1.020000;
	2	 0.0	 0.0	 3	   0.014490	  16.990000	   0.000000;
	2	 0.0	 0.0	 3	   0.020170	  17.960000	  -1.156000;
	2	 0.0	 0.0	 3	   0.017080	  16.480000	   0.000000;
	2	 0.0	 0.0	 3	   0.013580	  14.240000	   0.000000;
	2	 0.0	 0.0	 3	   0.020420	  25.400000	  -7.217000;
	2	 0.0	 0.0	 3	   0.020650	  22.280000	  -5.772000;
	2	 0.0	 0.0	 3	   0.011620	  29.890000	  -5.213000;
	2	 0.0	 0.0	 3	   0.026980	  23.340000	  -6.146000;
	2	 0.0	 0.0	 3	   0.020780	  17.190000	  -4.678000;
	2	 0.0	 0.0	 3	   0.019060	  26.830000	  -6.793000;
2	0.0	0.0	3	0.2	30.000000	0.000000;
2	0.0	0.0	3	0.2	30.000000	0.000000;
2	0.0	0.0	3	0.2	30.000000	0.000000;
2	0.0	0.0	3	0.2	30.000000	0.000000;
2	0.0	0.0	3	0.2	30.000000	0.000000;
2	0.0	0.0	3	0.2	30.000000	0.000000;
2	0.0	0.0	3	0.2	30.000000	0.000000;
2	0.0	0.0	3	0.2	30.000000	0.000000;
2	0.0	0.0	3	0.2	30.000000	0.000000;
2	0.0	0.0	3	0.2	30.000000	0.000000;
2	0.0	0.0	3	0.2	30.000000	0.000000;
2	0.0	0.0	3	0.2	30.000000	0.000000;
	2	 0.0	 0.0	 3	   0.018640	  19.460000	  -1.724000;
	2	 0.0	 0.0	 3	   0.020250	  21.280000	  -2.006000;
2	0.0	0.0	3	0.2	15.850000	0.000000;
2	0.0	0.0	3	0.2	14.680000	0.000000;
	2	 0.0	 0.0	 3	   0.012640	  21.190000	  -2.482000;
	2	 0.0	 0.0	 3	   0.023040	  18.720000	  -2.847000;
	2	 0.0	 0.0	 3	   0.012490	  20.530000	  -2.495000;
	2	 0.0	 0.0	 3	   0.019290	  17.330000	  -2.237000;
2	0.0	0.0	3	0.2	30.000000	0.000000;
2	0.0	0.0	3	0.2	30.000000	0.000000;
2	0.0	0.0	3	0.2	30.000000	0.000000;
2	0.0	0.0	3	0.2	30.000000	0.000000;
2	0.0	0.0	3	0.2	30.000000	0.000000;
2	0.0	0.0	3	0.2	30.000000	0.000000;
2	0.0	0.0	3	0.2	24.770000	0.000000;
2	0.0	0.0	3	0.2	23.890000	0.000000;
	2	 0.0	 0.0	 3	   0.023410	  27.190000	  -1.626000;
	2	 0.0	 0.0	 3	   0.019040	  27.540000	  -1.546000;
	2	 0.0	 0.0	 3	   0.026120	  28.970000	  -1.581000;
2	0.0	0.0	3	0.2	27.490000	-54.620000;
2	0.0	0.0	3	0.2	28.490000	-40.200000;
2	0.0	0.0	3	0.2	30.000000	0.000000;
2	0.0	0.0	3	0.2	30.000000	0.000000;
2	0.0	0.0	3	0.2	30.000000	0.000000;
2	0.0	0.0	3	0.2	30.000000	0.000000;
2	0.0	0.0	3	0.2	30.000000	0.000000;
2	0.0	0.0	3	0.2	30.000000	0.000000;
	2	 0.0	 0.0	 3	   0.027540	  26.150000	  -2.426000;
	2	 0.0	 0.0	 3	   0.033750	  29.900000	  -3.238000;
	2	 0.0	 0.0	 3	   0.030040	  32.670000	  -3.029000;
	2	 0.0	 0.0	 3	   0.028100	  29.570000	  -3.073000;
	2	 0.0	 0.0	 3	   0.029070	  33.100000	  -3.287000;
2	0.0	0.0	3	0.2	26.420000	0.000000;
2	0.0	0.0	3	0.2	23.670000	0.000000;
	2	 0.0	 0.0	 3	   0.027860	  27.390000	  -2.660000;
	2	 0.0	 0.0	 3	   0.034250	  26.960000	  -2.562000;
	2	 0.0	 0.0	 3	   0.025260	  34.170000	  -3.145000;
	2	 0.0	 0.0	 3	   0.029600	  27.690000	  -2.616000;
2	0.0	0.0	3	0.2	27.640000	0.000000;
	2	 0.0	 0.0	 3	   0.030600	  27.070000	  -1.764000;
	2	 0.0	 0.0	 3	   0.034700	  31.910000	  -2.326000;
	2	 0.0	 0.0	 3	   0.026410	  28.690000	  -2.552000;
	2	 0.0	 0.0	 3	   0.026800	  30.990000	  -4.106000;
	2	 0.0	 0.0	 3	   0.024290	  32.580000	  -4.626000;
	2	 0.0	 0.0	 3	   0.031500	  30.790000	  -4.019000;
	2	 0.0	 0.0	 3	   0.030240	  30.230000	  -4.252000;
	2	 0.0	 0.0	 3	   0.033730	  29.460000	  -4.014000;
	2	 0.0	 0.0	 3	   0.027190	  29.530000	  -4.077000;
2	0.0	0.0	3	0.2	24.590000	0.000000;
	2	 0.0	 0.0	 3	   0.064010	  39.890000	 -13.580000;
	2	 0.0	 0.0	 3	   0.075690	  39.520000	 -13.630000;
	2	 0.0	 0.0	 3	   0.018590	  30.360000	  -2.086000;
	2	 0.0	 0.0	 3	   0.019940	  29.900000	  -2.177000;
	2	 0.0	 0.0	 3	   0.026570	  25.400000	  -2.084000;
	2	 0.0	 0.0	 3	   0.026700	  30.430000	  -2.712000;
2	0.0	0.0	3	0.2	27.950000	0.000000;
2	0.0	0.0	3	0.2	24.810000	-9.402000;
2	0.0	0.0	3	0.2	26.840000	-9.579000;
	2	 0.0	 0.0	 3	   0.029000	  26.400000	  -2.688000;
	2	 0.0	 0.0	 3	   0.023990	  29.870000	  -3.309000;
	2	 0.0	 0.0	 3	   0.021510	  32.620000	  -3.169000;
	2	 0.0	 0.0	 3	   0.018140	  33.130000	  -2.925000;
	2	 0.0	 0.0	 3	   0.029630	  28.730000	  -3.319000;
	2	 0.0	 0.0	 3	   0.019670	  35.420000	  -2.741000;
	2	 0.0	 0.0	 3	   0.019490	  29.910000	  -2.624000;
	2	 0.0	 0.0	 3	   0.028880	  34.360000	  -3.224000;
	2	 0.0	 0.0	 3	   0.025300	  36.570000	  -4.649000;
	2	 0.0	 0.0	 3	   0.021940	  39.920000	  -4.583000;
	2	 0.0	 0.0	 3	   0.022130	  31.190000	  -3.989000;
	2	 0.0	 0.0	 3	   0.021080	  33.810000	  -4.054000;
2	0.0	0.0	3	0.2	24.640000	0.000000;
2	0.0	0.0	3	0.2	27.900000	0.000000;
2	0.0	0.0	3	0.2	28.820000	0.000000;
2	0.0	0.0	3	0.2	28.220000	-20.920000;
2	0.0	0.0	3	0.2	29.390000	-33.230000;
2	0.0	0.0	3	0.2	22.690000	0.000000;
	2	 0.0	 0.0	 3	   0.035560	  30.220000	  -3.324000;
	2	 0.0	 0.0	 3	   0.034520	  29.800000	  -3.435000;
	2	 0.0	 0.0	 3	   0.022020	  28.880000	  -2.864000;
	2	 0.0	 0.0	 3	   0.022020	  28.750000	  -2.089000;
	2	 0.0	 0.0	 3	   0.028370	  27.650000	  -2.337000;
	2	 0.0	 0.0	 3	   0.020730	  30.250000	  -2.185000;
	2	 0.0	 0.0	 3	   0.030270	  26.810000	  -1.859000;
2	0.0	0.0	3	0.2	30.000000	0.000000;
2	0.0	0.0	3	0.2	30.000000	0.000000;
2	0.0	0.0	3	0.2	30.000000	0.000000;
2	0.0	0.0	3	0.2	30.000000	0.000000;
2	0.0	0.0	3	0.2	30.000000	0.000000;
2	0.0	0.0	3	0.2	30.000000	0.000000;
2	0.0	0.0	3	0.2	30.000000	0.000000;
2	0.0	0.0	3	0.2	30.000000	0.000000;
2	0.0	0.0	3	0.2	30.000000	0.000000;
2	0.0	0.0	3	0.2	30.000000	0.000000;
	2	 0.0	 0.0	 3	   0.034270	  27.540000	  -2.959000;
	2	 0.0	 0.0	 3	   0.022210	  30.390000	  -2.577000;
	2	 0.0	 0.0	 3	   0.025580	  29.290000	  -2.630000;
2	0.0	0.0	3	0.2	30.000000	0.000000;
2	0.0	0.0	3	0.2	30.000000	0.000000;
2	0.0	0.0	3	0.2	30.000000	0.000000;
2	0.0	0.0	3	0.2	30.000000	0.000000;
2	0.0	0.0	3	0.2	30.000000	0.000000;
2	0.0	0.0	3	0.2	30.000000	0.000000;
2	0.0	0.0	3	0.2	28.390000	-33.640000;
2	0.0	0.0	3	0.2	28.910000	-49.180000;
2	0.0	0.0	3	0.2	29.590000	-53.360000;
	2	 0.0	 0.0	 3	   0.000000	   0.000000	   0.000000;
	2	 0.0	 0.0	 3	   0.000000	   0.000000	   0.000000;
	2	 0.0	 0.0	 3	   0.000000	   0.000000	   0.000000;
	2	 0.0	 0.0	 3	   0.000000	   0.000000	   0.000000;
	2	 0.0	 0.0	 3	   0.020750	  26.750000	  -1.370000;
	2	 0.0	 0.0	 3	   0.016860	  30.820000	  -1.447000;
	2	 0.0	 0.0	 3	   0.057680	  46.130000	 -11.660000;
2	0.0	0.0	3	0.2	25.330000	-12.060000;
2	0.0	0.0	3	0.2	25.660000	-4.680000;
2	0.0	0.0	3	0.2	24.700000	0.000000;
2	0.0	0.0	3	0.2	26.630000	0.000000;
2	0.0	0.0	3	0.2	27.190000	-6.785000;
2	0.0	0.0	3	0.2	24.980000	0.000000;
2	0.0	0.0	3	0.2	26.850000	0.000000;
	2	 0.0	 0.0	 3	   0.000000	   0.000000	   0.000000;
	2	 0.0	 0.0	 3	   0.000000	   0.000000	   0.000000;
2	0.0	0.0	3	0.2	30.000000	0.000000;
2	0.0	0.0	3	0.2	24.290000	-3.684000;
2	0.0	0.0	3	0.2	27.130000	-6.071000;
	2	 0.0	 0.0	 3	   0.026950	  39.130000	  -6.398000;
	2	 0.0	 0.0	 3	   0.039770	  30.070000	  -5.243000;
	2	 0.0	 0.0	 3	   0.028930	  34.570000	  -6.352000;
	2	 0.0	 0.0	 3	   0.023620	  40.790000	  -6.121000;
	2	 0.0	 0.0	 3	   0.027950	  37.180000	  -6.334000;
	2	 0.0	 0.0	 3	   0.031930	  29.680000	  -5.362000;
	2	 0.0	 0.0	 3	   0.076050	  51.290000	 -17.350000;
	2	 0.0	 0.0	 3	   0.082770	  40.290000	 -15.230000;
	2	 0.0	 0.0	 3	   0.071450	  38.330000	 -14.300000;
	2	 0.0	 0.0	 3	   0.067630	  41.080000	 -13.860000;
...
];

%% storage data
%	bus	energy	energy_rating	charge_rating	discharge_rating	thermal_rating	qmin	qmax	r	x	standby_loss	status
mpc.storage = [
	167	0.0	0.0	1.00	204.5186	102.2593	73.6267	0.9	0.85	1000	-1000	1000	0.1	0.01	0	0	1;
	137	0.0	0.0	1.00	202.7445	101.3723	72.9880	0.9	0.85	1000	-1000	1000	0.1	0.01	0	0	1;
	369	0.0	0.0	1.00	194.8666	97.4333	70.1520	0.9	0.85	1000	-1000	1000	0.1	0.01	0	0	1;
	15	0.0	0.0	1.00	186.1319	93.0660	67.0075	0.9	0.85	1000	-1000	1000	0.1	0.01	0	0	1;
	21	0.0	0.0	1.00	163.4135	81.7068	58.8289	0.9	0.85	1000	-1000	1000	0.1	0.01	0	0	1;
	225	0.0	0.0	1.00	156.8258	78.4129	56.4573	0.9	0.85	1000	-1000	1000	0.1	0.01	0	0	1;
	872	0.0	0.0	1.00	147.2187	73.6093	52.9987	0.9	0.85	1000	-1000	1000	0.1	0.01	0	0	1;
	140	0.0	0.0	1.00	146.8330	73.4165	52.8599	0.9	0.85	1000	-1000	1000	0.1	0.01	0	0	1;
	659	0.0	0.0	1.00	145.3156	72.6578	52.3136	0.9	0.85	1000	-1000	1000	0.1	0.01	0	0	1;
	229	0.0	0.0	1.00	142.7952	71.3976	51.4063	0.9	0.85	1000	-1000	1000	0.1	0.01	0	0	1;
	835	0.0	0.0	1.00	142.4867	71.2434	51.2952	0.9	0.85	1000	-1000	1000	0.1	0.01	0	0	1;
	1599	0.0	0.0	1.00	142.0512	71.0256	51.1384	0.9	0.85	1000	-1000	1000	0.1	0.01	0	0	1;
	820	0.0	0.0	1.00	139.7910	69.8955	50.3248	0.9	0.85	1000	-1000	1000	0.1	0.01	0	0	1;
	654	0.0	0.0	1.00	137.4783	68.7391	49.4922	0.9	0.85	1000	-1000	1000	0.1	0.01	0	0	1;
	777	0.0	0.0	1.00	135.9243	67.9622	48.9328	0.9	0.85	1000	-1000	1000	0.1	0.01	0	0	1;
	217	0.0	0.0	1.00	134.3566	67.1783	48.3684	0.9	0.85	1000	-1000	1000	0.1	0.01	0	0	1;
	253	0.0	0.0	1.00	133.7744	66.8872	48.1588	0.9	0.85	1000	-1000	1000	0.1	0.01	0	0	1;
	898	0.0	0.0	1.00	133.7436	66.8718	48.1477	0.9	0.85	1000	-1000	1000	0.1	0.01	0	0	1;
	250	0.0	0.0	1.00	133.6494	66.8247	48.1138	0.9	0.85	1000	-1000	1000	0.1	0.01	0	0	1;
	695	0.0	0.0	1.00	132.9003	66.4502	47.8441	0.9	0.85	1000	-1000	1000	0.1	0.01	0	0	1;
	1127	0.0	0.0	1.00	132.2641	66.1320	47.6151	0.9	0.85	1000	-1000	1000	0.1	0.01	0	0	1;
	11	0.0	0.0	1.00	132.1241	66.0621	47.5647	0.9	0.85	1000	-1000	1000	0.1	0.01	0	0	1;
	1584	0.0	0.0	1.00	130.1883	65.0942	46.8678	0.9	0.85	1000	-1000	1000	0.1	0.01	0	0	1;
	826	0.0	0.0	1.00	129.0930	64.5465	46.4735	0.9	0.85	1000	-1000	1000	0.1	0.01	0	0	1;
	672	0.0	0.0	1.00	127.6953	63.8477	45.9703	0.9	0.85	1000	-1000	1000	0.1	0.01	0	0	1;
	13	0.0	0.0	1.00	123.9254	61.9627	44.6131	0.9	0.85	1000	-1000	1000	0.1	0.01	0	0	1;
	1583	0.0	0.0	1.00	123.9178	61.9589	44.6104	0.9	0.85	1000	-1000	1000	0.1	0.01	0	0	1;
	838	0.0	0.0	1.00	122.1505	61.0753	43.9742	0.9	0.85	1000	-1000	1000	0.1	0.01	0	0	1;
	1581	0.0	0.0	1.00	121.8619	60.9310	43.8703	0.9	0.85	1000	-1000	1000	0.1	0.01	0	0	1;
	265	0.0	0.0	1.00	121.7737	60.8868	43.8385	0.9	0.85	1000	-1000	1000	0.1	0.01	0	0	1;
	144	0.0	0.0	1.00	121.3234	60.6617	43.6764	0.9	0.85	1000	-1000	1000	0.1	0.01	0	0	1;
	1703	0.0	0.0	1.00	121.0389	60.5194	43.5740	0.9	0.85	1000	-1000	1000	0.1	0.01	0	0	1;
	902	0.0	0.0	1.00	120.9120	60.4560	43.5283	0.9	0.85	1000	-1000	1000	0.1	0.01	0	0	1;
	102	0.0	0.0	1.00	120.3198	60.1599	43.3151	0.9	0.85	1000	-1000	1000	0.1	0.01	0	0	1;
	1091	0.0	0.0	1.00	119.7297	59.8649	43.1027	0.9	0.85	1000	-1000	1000	0.1	0.01	0	0	1;
	29	0.0	0.0	1.00	119.4499	59.7249	43.0020	0.9	0.85	1000	-1000	1000	0.1	0.01	0	0	1;
	108	0.0	0.0	1.00	118.4607	59.2303	42.6458	0.9	0.85	1000	-1000	1000	0.1	0.01	0	0	1;
	883	0.0	0.0	1.00	116.9248	58.4624	42.0929	0.9	0.85	1000	-1000	1000	0.1	0.01	0	0	1;
	123	0.0	0.0	1.00	116.0812	58.0406	41.7892	0.9	0.85	1000	-1000	1000	0.1	0.01	0	0	1;
	336	0.0	0.0	1.00	115.5133	57.7567	41.5848	0.9	0.85	1000	-1000	1000	0.1	0.01	0	0	1;
	154	0.0	0.0	1.00	114.4396	57.2198	41.1983	0.9	0.85	1000	-1000	1000	0.1	0.01	0	0	1;
	1588	0.0	0.0	1.00	113.7045	56.8523	40.9336	0.9	0.85	1000	-1000	1000	0.1	0.01	0	0	1;
	845	0.0	0.0	1.00	113.5792	56.7896	40.8885	0.9	0.85	1000	-1000	1000	0.1	0.01	0	0	1;
	287	0.0	0.0	1.00	113.3930	56.6965	40.8215	0.9	0.85	1000	-1000	1000	0.1	0.01	0	0	1;
	677	0.0	0.0	1.00	112.7582	56.3791	40.5930	0.9	0.85	1000	-1000	1000	0.1	0.01	0	0	1;
	1108	0.0	0.0	1.00	112.7041	56.3520	40.5735	0.9	0.85	1000	-1000	1000	0.1	0.01	0	0	1;
	1706	0.0	0.0	1.00	112.0791	56.0396	40.3485	0.9	0.85	1000	-1000	1000	0.1	0.01	0	0	1;
	183	0.0	0.0	1.00	111.7864	55.8932	40.2431	0.9	0.85	1000	-1000	1000	0.1	0.01	0	0	1;
	130	0.0	0.0	1.00	109.5529	54.7764	39.4390	0.9	0.85	1000	-1000	1000	0.1	0.01	0	0	1;
	675	0.0	0.0	1.00	109.2483	54.6242	39.3294	0.9	0.85	1000	-1000	1000	0.1	0.01	0	0	1;
	99	0.0	0.0	1.00	108.7794	54.3897	39.1606	0.9	0.85	1000	-1000	1000	0.1	0.01	0	0	1;
	1062	0.0	0.0	1.00	108.6544	54.3272	39.1156	0.9	0.85	1000	-1000	1000	0.1	0.01	0	0	1;
	1628	0.0	0.0	1.00	108.2853	54.1426	38.9827	0.9	0.85	1000	-1000	1000	0.1	0.01	0	0	1;
	364	0.0	0.0	1.00	108.2634	54.1317	38.9748	0.9	0.85	1000	-1000	1000	0.1	0.01	0	0	1;
	158	0.0	0.0	1.00	107.7819	53.8909	38.8015	0.9	0.85	1000	-1000	1000	0.1	0.01	0	0	1;
	608	0.0	0.0	1.00	107.5358	53.7679	38.7129	0.9	0.85	1000	-1000	1000	0.1	0.01	0	0	1;
	37	0.0	0.0	1.00	106.9308	53.4654	38.4951	0.9	0.85	1000	-1000	1000	0.1	0.01	0	0	1;
	162	0.0	0.0	1.00	106.7000	53.3500	38.4120	0.9	0.85	1000	-1000	1000	0.1	0.01	0	0	1;
	407	0.0	0.0	1.00	106.5422	53.2711	38.3552	0.9	0.85	1000	-1000	1000	0.1	0.01	0	0	1;
	133	0.0	0.0	1.00	106.4569	53.2285	38.3245	0.9	0.85	1000	-1000	1000	0.1	0.01	0	0	1;
	697	0.0	0.0	1.00	105.6445	52.8222	38.0320	0.9	0.85	1000	-1000	1000	0.1	0.01	0	0	1;
	112	0.0	0.0	1.00	105.4869	52.7435	37.9753	0.9	0.85	1000	-1000	1000	0.1	0.01	0	0	1;
	204	0.0	0.0	1.00	105.4694	52.7347	37.9690	0.9	0.85	1000	-1000	1000	0.1	0.01	0	0	1;
	692	0.0	0.0	1.00	105.4153	52.7076	37.9495	0.9	0.85	1000	-1000	1000	0.1	0.01	0	0	1;
	241	0.0	0.0	1.00	104.1282	52.0641	37.4862	0.9	0.85	1000	-1000	1000	0.1	0.01	0	0	1;
	350	0.0	0.0	1.00	103.7940	51.8970	37.3659	0.9	0.85	1000	-1000	1000	0.1	0.01	0	0	1;
	149	0.0	0.0	1.00	103.6722	51.8361	37.3220	0.9	0.85	1000	-1000	1000	0.1	0.01	0	0	1;
	1095	0.0	0.0	1.00	103.6604	51.8302	37.3178	0.9	0.85	1000	-1000	1000	0.1	0.01	0	0	1;
	247	0.0	0.0	1.00	102.6617	51.3308	36.9582	0.9	0.85	1000	-1000	1000	0.1	0.01	0	0	1;
	828	0.0	0.0	1.00	102.4543	51.2272	36.8836	0.9	0.85	1000	-1000	1000	0.1	0.01	0	0	1;
	700	0.0	0.0	1.00	102.3870	51.1935	36.8593	0.9	0.85	1000	-1000	1000	0.1	0.01	0	0	1;
	774	0.0	0.0	1.00	101.6457	50.8229	36.5925	0.9	0.85	1000	-1000	1000	0.1	0.01	0	0	1;
	44	0.0	0.0	1.00	101.5989	50.7995	36.5756	0.9	0.85	1000	-1000	1000	0.1	0.01	0	0	1;
	176	0.0	0.0	1.00	101.1859	50.5929	36.4269	0.9	0.85	1000	-1000	1000	0.1	0.01	0	0	1;
	1640	0.0	0.0	1.00	100.4900	50.2450	36.1764	0.9	0.85	1000	-1000	1000	0.1	0.01	0	0	1;
	707	0.0	0.0	1.00	100.4540	50.2270	36.1635	0.9	0.85	1000	-1000	1000	0.1	0.01	0	0	1;
	463	0.0	0.0	1.00	99.4935	49.7467	35.8177	0.9	0.85	1000	-1000	1000	0.1	0.01	0	0	1;
	859	0.0	0.0	1.00	99.3674	49.6837	35.7723	0.9	0.85	1000	-1000	1000	0.1	0.01	0	0	1;
	879	0.0	0.0	1.00	98.7525	49.3762	35.5509	0.9	0.85	1000	-1000	1000	0.1	0.01	0	0	1;
	54	0.0	0.0	1.00	98.1479	49.0739	35.3332	0.9	0.85	1000	-1000	1000	0.1	0.01	0	0	1;
	1582	0.0	0.0	1.00	98.1154	49.0577	35.3215	0.9	0.85	1000	-1000	1000	0.1	0.01	0	0	1;
	1137	0.0	0.0	1.00	98.0435	49.0218	35.2957	0.9	0.85	1000	-1000	1000	0.1	0.01	0	0	1;
	807	0.0	0.0	1.00	97.7751	48.8876	35.1990	0.9	0.85	1000	-1000	1000	0.1	0.01	0	0	1;
	172	0.0	0.0	1.00	97.4869	48.7434	35.0953	0.9	0.85	1000	-1000	1000	0.1	0.01	0	0	1;
	1156	0.0	0.0	1.00	97.2406	48.6203	35.0066	0.9	0.85	1000	-1000	1000	0.1	0.01	0	0	1;
	315	0.0	0.0	1.00	96.4263	48.2131	34.7135	0.9	0.85	1000	-1000	1000	0.1	0.01	0	0	1;
	858	0.0	0.0	1.00	96.3985	48.1992	34.7034	0.9	0.85	1000	-1000	1000	0.1	0.01	0	0	1;
	270	0.0	0.0	1.00	96.3938	48.1969	34.7018	0.9	0.85	1000	-1000	1000	0.1	0.01	0	0	1;
	300	0.0	0.0	1.00	96.3878	48.1939	34.6996	0.9	0.85	1000	-1000	1000	0.1	0.01	0	0	1;
	1699	0.0	0.0	1.00	95.9678	47.9839	34.5484	0.9	0.85	1000	-1000	1000	0.1	0.01	0	0	1;
	91	0.0	0.0	1.00	95.9085	47.9543	34.5271	0.9	0.85	1000	-1000	1000	0.1	0.01	0	0	1;
	338	0.0	0.0	1.00	95.8106	47.9053	34.4918	0.9	0.85	1000	-1000	1000	0.1	0.01	0	0	1;
	875	0.0	0.0	1.00	95.2385	47.6192	34.2858	0.9	0.85	1000	-1000	1000	0.1	0.01	0	0	1;
	120	0.0	0.0	1.00	94.6938	47.3469	34.0898	0.9	0.85	1000	-1000	1000	0.1	0.01	0	0	1;
	3	0.0	0.0	1.00	94.5489	47.2744	34.0376	0.9	0.85	1000	-1000	1000	0.1	0.01	0	0	1;
	1131	0.0	0.0	1.00	93.9992	46.9996	33.8397	0.9	0.85	1000	-1000	1000	0.1	0.01	0	0	1;
	298	0.0	0.0	1.00	93.1790	46.5895	33.5444	0.9	0.85	1000	-1000	1000	0.1	0.01	0	0	1;
	1083	0.0	0.0	1.00	93.0220	46.5110	33.4879	0.9	0.85	1000	-1000	1000	0.1	0.01	0	0	1;
	259	0.0	0.0	1.00	92.5821	46.2910	33.3295	0.9	0.85	1000	-1000	1000	0.1	0.01	0	0	1;
	905	0.0	0.0	1.00	92.5807	46.2904	33.3291	0.9	0.85	1000	-1000	1000	0.1	0.01	0	0	1;
	1784	0.0	0.0	1.00	92.5378	46.2689	33.3136	0.9	0.85	1000	-1000	1000	0.1	0.01	0	0	1;
	35	0.0	0.0	1.00	92.0036	46.0018	33.1213	0.9	0.85	1000	-1000	1000	0.1	0.01	0	0	1;
	662	0.0	0.0	1.00	91.8293	45.9146	33.0585	0.9	0.85	1000	-1000	1000	0.1	0.01	0	0	1;
	311	0.0	0.0	1.00	91.7465	45.8732	33.0287	0.9	0.85	1000	-1000	1000	0.1	0.01	0	0	1;
	1606	0.0	0.0	1.00	91.2525	45.6262	32.8509	0.9	0.85	1000	-1000	1000	0.1	0.01	0	0	1;
	274	0.0	0.0	1.00	91.2499	45.6250	32.8500	0.9	0.85	1000	-1000	1000	0.1	0.01	0	0	1;
	851	0.0	0.0	1.00	90.7219	45.3609	32.6599	0.9	0.85	1000	-1000	1000	0.1	0.01	0	0	1;
	27	0.0	0.0	1.00	90.3516	45.1758	32.5266	0.9	0.85	1000	-1000	1000	0.1	0.01	0	0	1;
	95	0.0	0.0	1.00	90.0646	45.0323	32.4233	0.9	0.85	1000	-1000	1000	0.1	0.01	0	0	1;
	1786	0.0	0.0	1.00	90.0490	45.0245	32.4177	0.9	0.85	1000	-1000	1000	0.1	0.01	0	0	1;
	255	0.0	0.0	1.00	89.9127	44.9563	32.3686	0.9	0.85	1000	-1000	1000	0.1	0.01	0	0	1;
	5	0.0	0.0	1.00	89.7918	44.8959	32.3250	0.9	0.85	1000	-1000	1000	0.1	0.01	0	0	1;
	104	0.0	0.0	1.00	89.2548	44.6274	32.1317	0.9	0.85	1000	-1000	1000	0.1	0.01	0	0	1;
	30	0.0	0.0	1.00	89.1719	44.5859	32.1019	0.9	0.85	1000	-1000	1000	0.1	0.01	0	0	1;
	223	0.0	0.0	1.00	89.0631	44.5316	32.0627	0.9	0.85	1000	-1000	1000	0.1	0.01	0	0	1;
	1514	0.0	0.0	1.00	88.9546	44.4773	32.0237	0.9	0.85	1000	-1000	1000	0.1	0.01	0	0	1;
	1586	0.0	0.0	1.00	88.5972	44.2986	31.8950	0.9	0.85	1000	-1000	1000	0.1	0.01	0	0	1;
	704	0.0	0.0	1.00	87.2987	43.6493	31.4275	0.9	0.85	1000	-1000	1000	0.1	0.01	0	0	1;
	16	0.0	0.0	1.00	87.2465	43.6233	31.4087	0.9	0.85	1000	-1000	1000	0.1	0.01	0	0	1;
	262	0.0	0.0	1.00	87.2227	43.6113	31.4002	0.9	0.85	1000	-1000	1000	0.1	0.01	0	0	1;
	824	0.0	0.0	1.00	86.9515	43.4757	31.3025	0.9	0.85	1000	-1000	1000	0.1	0.01	0	0	1;
	903	0.0	0.0	1.00	86.8803	43.4402	31.2769	0.9	0.85	1000	-1000	1000	0.1	0.01	0	0	1;
	1516	0.0	0.0	1.00	86.8757	43.4378	31.2752	0.9	0.85	1000	-1000	1000	0.1	0.01	0	0	1;
	246	0.0	0.0	1.00	86.5779	43.2889	31.1680	0.9	0.85	1000	-1000	1000	0.1	0.01	0	0	1;
	423	0.0	0.0	1.00	86.5344	43.2672	31.1524	0.9	0.85	1000	-1000	1000	0.1	0.01	0	0	1;
	1609	0.0	0.0	1.00	86.3049	43.1525	31.0698	0.9	0.85	1000	-1000	1000	0.1	0.01	0	0	1;
	974	0.0	0.0	1.00	85.9994	42.9997	30.9598	0.9	0.85	1000	-1000	1000	0.1	0.01	0	0	1;
	983	0.0	0.0	1.00	85.9105	42.9552	30.9278	0.9	0.85	1000	-1000	1000	0.1	0.01	0	0	1;
	1552	0.0	0.0	1.00	85.3578	42.6789	30.7288	0.9	0.85	1000	-1000	1000	0.1	0.01	0	0	1;
	873	0.0	0.0	1.00	85.2429	42.6214	30.6874	0.9	0.85	1000	-1000	1000	0.1	0.01	0	0	1;
	372	0.0	0.0	1.00	85.2386	42.6193	30.6859	0.9	0.85	1000	-1000	1000	0.1	0.01	0	0	1;
	40	0.0	0.0	1.00	85.1873	42.5936	30.6674	0.9	0.85	1000	-1000	1000	0.1	0.01	0	0	1;
	7	0.0	0.0	1.00	85.0044	42.5022	30.6016	0.9	0.85	1000	-1000	1000	0.1	0.01	0	0	1;
	1664	0.0	0.0	1.00	84.5154	42.2577	30.4255	0.9	0.85	1000	-1000	1000	0.1	0.01	0	0	1;
	295	0.0	0.0	1.00	83.5038	41.7519	30.0614	0.9	0.85	1000	-1000	1000	0.1	0.01	0	0	1;
	822	0.0	0.0	1.00	83.3808	41.6904	30.0171	0.9	0.85	1000	-1000	1000	0.1	0.01	0	0	1;
	607	0.0	0.0	1.00	83.0520	41.5260	29.8987	0.9	0.85	1000	-1000	1000	0.1	0.01	0	0	1;
	841	0.0	0.0	1.00	82.8982	41.4491	29.8434	0.9	0.85	1000	-1000	1000	0.1	0.01	0	0	1;
	1182	0.0	0.0	1.00	82.8783	41.4392	29.8362	0.9	0.85	1000	-1000	1000	0.1	0.01	0	0	1;
	656	0.0	0.0	1.00	82.7703	41.3851	29.7973	0.9	0.85	1000	-1000	1000	0.1	0.01	0	0	1;
	34	0.0	0.0	1.00	82.1584	41.0792	29.5770	0.9	0.85	1000	-1000	1000	0.1	0.01	0	0	1;
	1555	0.0	0.0	1.00	81.8767	40.9383	29.4756	0.9	0.85	1000	-1000	1000	0.1	0.01	0	0	1;
	153	0.0	0.0	1.00	81.6965	40.8482	29.4107	0.9	0.85	1000	-1000	1000	0.1	0.01	0	0	1;
	1545	0.0	0.0	1.00	81.5640	40.7820	29.3630	0.9	0.85	1000	-1000	1000	0.1	0.01	0	0	1;
	190	0.0	0.0	1.00	81.4542	40.7271	29.3235	0.9	0.85	1000	-1000	1000	0.1	0.01	0	0	1;
	1836	0.0	0.0	1.00	81.1205	40.5602	29.2034	0.9	0.85	1000	-1000	1000	0.1	0.01	0	0	1;
	1589	0.0	0.0	1.00	80.6663	40.3331	29.0399	0.9	0.85	1000	-1000	1000	0.1	0.01	0	0	1;
	874	0.0	0.0	1.00	79.3336	39.6668	28.5601	0.9	0.85	1000	-1000	1000	0.1	0.01	0	0	1;
	1630	0.0	0.0	1.00	79.2307	39.6154	28.5231	0.9	0.85	1000	-1000	1000	0.1	0.01	0	0	1;
	862	0.0	0.0	1.00	79.1715	39.5858	28.5017	0.9	0.85	1000	-1000	1000	0.1	0.01	0	0	1;
	357	0.0	0.0	1.00	79.0261	39.5130	28.4494	0.9	0.85	1000	-1000	1000	0.1	0.01	0	0	1;
	6	0.0	0.0	1.00	78.9264	39.4632	28.4135	0.9	0.85	1000	-1000	1000	0.1	0.01	0	0	1;
	1176	0.0	0.0	1.00	78.8221	39.4110	28.3760	0.9	0.85	1000	-1000	1000	0.1	0.01	0	0	1;
	88	0.0	0.0	1.00	78.5800	39.2900	28.2888	0.9	0.85	1000	-1000	1000	0.1	0.01	0	0	1;
	750	0.0	0.0	1.00	78.0976	39.0488	28.1151	0.9	0.85	1000	-1000	1000	0.1	0.01	0	0	1;
	260	0.0	0.0	1.00	78.0752	39.0376	28.1071	0.9	0.85	1000	-1000	1000	0.1	0.01	0	0	1;
	333	0.0	0.0	1.00	77.9596	38.9798	28.0655	0.9	0.85	1000	-1000	1000	0.1	0.01	0	0	1;
	1124	0.0	0.0	1.00	77.4292	38.7146	27.8745	0.9	0.85	1000	-1000	1000	0.1	0.01	0	0	1;
	484	0.0	0.0	1.00	77.0274	38.5137	27.7298	0.9	0.85	1000	-1000	1000	0.1	0.01	0	0	1;
	33	0.0	0.0	1.00	76.7247	38.3623	27.6209	0.9	0.85	1000	-1000	1000	0.1	0.01	0	0	1;
	848	0.0	0.0	1.00	76.5602	38.2801	27.5617	0.9	0.85	1000	-1000	1000	0.1	0.01	0	0	1;
	955	0.0	0.0	1.00	76.4877	38.2438	27.5356	0.9	0.85	1000	-1000	1000	0.1	0.01	0	0	1;
	1587	0.0	0.0	1.00	76.2653	38.1327	27.4555	0.9	0.85	1000	-1000	1000	0.1	0.01	0	0	1;
	1012	0.0	0.0	1.00	76.2240	38.1120	27.4406	0.9	0.85	1000	-1000	1000	0.1	0.01	0	0	1;
	612	0.0	0.0	1.00	76.1232	38.0616	27.4044	0.9	0.85	1000	-1000	1000	0.1	0.01	0	0	1;
	192	0.0	0.0	1.00	75.9053	37.9526	27.3259	0.9	0.85	1000	-1000	1000	0.1	0.01	0	0	1;
	1006	0.0	0.0	1.00	75.5679	37.7839	27.2044	0.9	0.85	1000	-1000	1000	0.1	0.01	0	0	1;
	150	0.0	0.0	1.00	75.4942	37.7471	27.1779	0.9	0.85	1000	-1000	1000	0.1	0.01	0	0	1;
	846	0.0	0.0	1.00	75.4443	37.7221	27.1599	0.9	0.85	1000	-1000	1000	0.1	0.01	0	0	1;
	1610	0.0	0.0	1.00	75.2543	37.6271	27.0915	0.9	0.85	1000	-1000	1000	0.1	0.01	0	0	1;
	126	0.0	0.0	1.00	75.0550	37.5275	27.0198	0.9	0.85	1000	-1000	1000	0.1	0.01	0	0	1;
	890	0.0	0.0	1.00	75.0009	37.5005	27.0003	0.9	0.85	1000	-1000	1000	0.1	0.01	0	0	1;
	340	0.0	0.0	1.00	74.9958	37.4979	26.9985	0.9	0.85	1000	-1000	1000	0.1	0.01	0	0	1;
	1564	0.0	0.0	1.00	74.8951	37.4476	26.9622	0.9	0.85	1000	-1000	1000	0.1	0.01	0	0	1;
	358	0.0	0.0	1.00	74.8158	37.4079	26.9337	0.9	0.85	1000	-1000	1000	0.1	0.01	0	0	1;
	173	0.0	0.0	1.00	74.7187	37.3594	26.8987	0.9	0.85	1000	-1000	1000	0.1	0.01	0	0	1;
	267	0.0	0.0	1.00	74.6448	37.3224	26.8721	0.9	0.85	1000	-1000	1000	0.1	0.01	0	0	1;
	286	0.0	0.0	1.00	74.5815	37.2908	26.8494	0.9	0.85	1000	-1000	1000	0.1	0.01	0	0	1;
	1714	0.0	0.0	1.00	74.5294	37.2647	26.8306	0.9	0.85	1000	-1000	1000	0.1	0.01	0	0	1;
	1177	0.0	0.0	1.00	74.4781	37.2390	26.8121	0.9	0.85	1000	-1000	1000	0.1	0.01	0	0	1;
	1571	0.0	0.0	1.00	74.1791	37.0896	26.7045	0.9	0.85	1000	-1000	1000	0.1	0.01	0	0	1;
	244	0.0	0.0	1.00	74.0864	37.0432	26.6711	0.9	0.85	1000	-1000	1000	0.1	0.01	0	0	1;
	1149	0.0	0.0	1.00	74.0614	37.0307	26.6621	0.9	0.85	1000	-1000	1000	0.1	0.01	0	0	1;
	760	0.0	0.0	1.00	73.9189	36.9594	26.6108	0.9	0.85	1000	-1000	1000	0.1	0.01	0	0	1;
	976	0.0	0.0	1.00	73.9001	36.9501	26.6040	0.9	0.85	1000	-1000	1000	0.1	0.01	0	0	1;
	320	0.0	0.0	1.00	73.5656	36.7828	26.4836	0.9	0.85	1000	-1000	1000	0.1	0.01	0	0	1;
	339	0.0	0.0	1.00	73.5548	36.7774	26.4797	0.9	0.85	1000	-1000	1000	0.1	0.01	0	0	1;
	402	0.0	0.0	1.00	73.4106	36.7053	26.4278	0.9	0.85	1000	-1000	1000	0.1	0.01	0	0	1;
	308	0.0	0.0	1.00	72.8515	36.4257	26.2265	0.9	0.85	1000	-1000	1000	0.1	0.01	0	0	1;
	245	0.0	0.0	1.00	72.8213	36.4106	26.2157	0.9	0.85	1000	-1000	1000	0.1	0.01	0	0	1;
	1254	0.0	0.0	1.00	72.7452	36.3726	26.1883	0.9	0.85	1000	-1000	1000	0.1	0.01	0	0	1;
	454	0.0	0.0	1.00	72.7023	36.3511	26.1728	0.9	0.85	1000	-1000	1000	0.1	0.01	0	0	1;
	985	0.0	0.0	1.00	72.5969	36.2984	26.1349	0.9	0.85	1000	-1000	1000	0.1	0.01	0	0	1;
	1796	0.0	0.0	1.00	72.4287	36.2143	26.0743	0.9	0.85	1000	-1000	1000	0.1	0.01	0	0	1;
	213	0.0	0.0	1.00	72.3923	36.1962	26.0612	0.9	0.85	1000	-1000	1000	0.1	0.01	0	0	1;
	1008	0.0	0.0	1.00	72.2495	36.1248	26.0098	0.9	0.85	1000	-1000	1000	0.1	0.01	0	0	1;
...